                                  MODFLOW-2005     
      U.S. GEOLOGICAL SURVEY MODULAR FINITE-DIFFERENCE GROUND-WATER FLOW MODEL
                            VERSION 1.12.00 2/3/2017

 LIST FILE: 2018.list
                         UNIT    2

 OPENING 2018.dis
 FILE TYPE:DIS   UNIT   11   STATUS:OLD    
 FORMAT:FORMATTED              ACCESS:SEQUENTIAL          

 OPENING 2018.bas
 FILE TYPE:BAS6   UNIT   13   STATUS:OLD    
 FORMAT:FORMATTED              ACCESS:SEQUENTIAL          

 OPENING 2018.bcf
 FILE TYPE:BCF6   UNIT   15   STATUS:OLD    
 FORMAT:FORMATTED              ACCESS:SEQUENTIAL          

 OPENING 2018.oc
 FILE TYPE:OC   UNIT   14   STATUS:OLD    
 FORMAT:FORMATTED              ACCESS:SEQUENTIAL          

 OPENING 2018.pcg
 FILE TYPE:PCG   UNIT   27   STATUS:OLD    
 FORMAT:FORMATTED              ACCESS:SEQUENTIAL          

 OPENING 2018.rch
 FILE TYPE:RCH   UNIT   19   STATUS:OLD    
 FORMAT:FORMATTED              ACCESS:SEQUENTIAL          

 OPENING 2018.riv
 FILE TYPE:RIV   UNIT   18   STATUS:OLD    
 FORMAT:FORMATTED              ACCESS:SEQUENTIAL          

 OPENING 2018.hds
 FILE TYPE:DATA(BINARY)   UNIT   51   STATUS:REPLACE
 FORMAT:BINARY                 ACCESS:SEQUENTIAL          

 BAS -- BASIC PACKAGE, VERSION 7, 5/2/2005 INPUT READ FROM UNIT   13
 
 MODFLOW was compiled using mixed precision
 Precision of REAL variables:           6
 Precision of DOUBLE PRECISION variables:          15

 DISCRETIZATION INPUT DATA READ FROM UNIT   11
 # DIS package for  MODFLOW-2005, generated by Flopy.
    2 LAYERS         1 ROWS      1000 COLUMNS
  272 STRESS PERIOD(S) IN SIMULATION
 MODEL TIME UNIT IS DAYS
 MODEL LENGTH UNIT IS METERS
  Confining bed flag for each layer:
   0   0

                     DELR =   1.00000    

                     DELC =   10.0000    

 TOP ELEVATION OF LAYER 1 =   5.00000    

   MODEL LAYER BOTTOM EL. =  -5.00000     FOR LAYER   1

   MODEL LAYER BOTTOM EL. =  -25.0000     FOR LAYER   2


 STRESS PERIOD     LENGTH       TIME STEPS     MULTIPLIER FOR DELT    SS FLAG
 ----------------------------------------------------------------------------
        1         1.000000          1                    1.000         SS
        2         1.000000          1                    1.000         TR
        3         1.000000          1                    1.000         TR
        4         1.000000          1                    1.000         TR
        5         1.000000          1                    1.000         TR
        6         1.000000          1                    1.000         TR
        7         1.000000          1                    1.000         TR
        8         1.000000          1                    1.000         TR
        9         1.000000          1                    1.000         TR
       10         1.000000          1                    1.000         TR
       11         1.000000          1                    1.000         TR
       12         1.000000          1                    1.000         TR
       13         1.000000          1                    1.000         TR
       14         1.000000          1                    1.000         TR
       15         1.000000          1                    1.000         TR
       16         1.000000          1                    1.000         TR
       17         1.000000          1                    1.000         TR
       18         1.000000          1                    1.000         TR
       19         1.000000          1                    1.000         TR
       20         1.000000          1                    1.000         TR
       21         1.000000          1                    1.000         TR
       22         1.000000          1                    1.000         TR
       23         1.000000          1                    1.000         TR
       24         1.000000          1                    1.000         TR
       25         1.000000          1                    1.000         TR
       26         1.000000          1                    1.000         TR
       27         1.000000          1                    1.000         TR
       28         1.000000          1                    1.000         TR
       29         1.000000          1                    1.000         TR
       30         1.000000          1                    1.000         TR
       31         1.000000          1                    1.000         TR
       32         1.000000          1                    1.000         TR
       33         1.000000          1                    1.000         TR
       34         1.000000          1                    1.000         TR
       35         1.000000          1                    1.000         TR
       36         1.000000          1                    1.000         TR
       37         1.000000          1                    1.000         TR
       38         1.000000          1                    1.000         TR
       39         1.000000          1                    1.000         TR
       40         1.000000          1                    1.000         TR
       41         1.000000          1                    1.000         TR
       42         1.000000          1                    1.000         TR
       43         1.000000          1                    1.000         TR
       44         1.000000          1                    1.000         TR
       45         1.000000          1                    1.000         TR
       46         1.000000          1                    1.000         TR
       47         1.000000          1                    1.000         TR
       48         1.000000          1                    1.000         TR
       49         1.000000          1                    1.000         TR
       50         1.000000          1                    1.000         TR
       51         1.000000          1                    1.000         TR
       52         1.000000          1                    1.000         TR
       53         1.000000          1                    1.000         TR
       54         1.000000          1                    1.000         TR
       55         1.000000          1                    1.000         TR
       56         1.000000          1                    1.000         TR
       57         1.000000          1                    1.000         TR
       58         1.000000          1                    1.000         TR
       59         1.000000          1                    1.000         TR
       60         1.000000          1                    1.000         TR
       61         1.000000          1                    1.000         TR
       62         1.000000          1                    1.000         TR
       63         1.000000          1                    1.000         TR
       64         1.000000          1                    1.000         TR
       65         1.000000          1                    1.000         TR
       66         1.000000          1                    1.000         TR
       67         1.000000          1                    1.000         TR
       68         1.000000          1                    1.000         TR
       69         1.000000          1                    1.000         TR
       70         1.000000          1                    1.000         TR
       71         1.000000          1                    1.000         TR
       72         1.000000          1                    1.000         TR
       73         1.000000          1                    1.000         TR
       74         1.000000          1                    1.000         TR
       75         1.000000          1                    1.000         TR
       76         1.000000          1                    1.000         TR
       77         1.000000          1                    1.000         TR
       78         1.000000          1                    1.000         TR
       79         1.000000          1                    1.000         TR
       80         1.000000          1                    1.000         TR
       81         1.000000          1                    1.000         TR
       82         1.000000          1                    1.000         TR
       83         1.000000          1                    1.000         TR
       84         1.000000          1                    1.000         TR
       85         1.000000          1                    1.000         TR
       86         1.000000          1                    1.000         TR
       87         1.000000          1                    1.000         TR
       88         1.000000          1                    1.000         TR
       89         1.000000          1                    1.000         TR
       90         1.000000          1                    1.000         TR
       91         1.000000          1                    1.000         TR
       92         1.000000          1                    1.000         TR
       93         1.000000          1                    1.000         TR
       94         1.000000          1                    1.000         TR
       95         1.000000          1                    1.000         TR
       96         1.000000          1                    1.000         TR
       97         1.000000          1                    1.000         TR
       98         1.000000          1                    1.000         TR
       99         1.000000          1                    1.000         TR
      100         1.000000          1                    1.000         TR
      101         1.000000          1                    1.000         TR
      102         1.000000          1                    1.000         TR
      103         1.000000          1                    1.000         TR
      104         1.000000          1                    1.000         TR
      105         1.000000          1                    1.000         TR
      106         1.000000          1                    1.000         TR
      107         1.000000          1                    1.000         TR
      108         1.000000          1                    1.000         TR
      109         1.000000          1                    1.000         TR
      110         1.000000          1                    1.000         TR
      111         1.000000          1                    1.000         TR
      112         1.000000          1                    1.000         TR
      113         1.000000          1                    1.000         TR
      114         1.000000          1                    1.000         TR
      115         1.000000          1                    1.000         TR
      116         1.000000          1                    1.000         TR
      117         1.000000          1                    1.000         TR
      118         1.000000          1                    1.000         TR
      119         1.000000          1                    1.000         TR
      120         1.000000          1                    1.000         TR
      121         1.000000          1                    1.000         TR
      122         1.000000          1                    1.000         TR
      123         1.000000          1                    1.000         TR
      124         1.000000          1                    1.000         TR
      125         1.000000          1                    1.000         TR
      126         1.000000          1                    1.000         TR
      127         1.000000          1                    1.000         TR
      128         1.000000          1                    1.000         TR
      129         1.000000          1                    1.000         TR
      130         1.000000          1                    1.000         TR
      131         1.000000          1                    1.000         TR
      132         1.000000          1                    1.000         TR
      133         1.000000          1                    1.000         TR
      134         1.000000          1                    1.000         TR
      135         1.000000          1                    1.000         TR
      136         1.000000          1                    1.000         TR
      137         1.000000          1                    1.000         TR
      138         1.000000          1                    1.000         TR
      139         1.000000          1                    1.000         TR
      140         1.000000          1                    1.000         TR
      141         1.000000          1                    1.000         TR
      142         1.000000          1                    1.000         TR
      143         1.000000          1                    1.000         TR
      144         1.000000          1                    1.000         TR
      145         1.000000          1                    1.000         TR
      146         1.000000          1                    1.000         TR
      147         1.000000          1                    1.000         TR
      148         1.000000          1                    1.000         TR
      149         1.000000          1                    1.000         TR
      150         1.000000          1                    1.000         TR
      151         1.000000          1                    1.000         TR
      152         1.000000          1                    1.000         TR
      153         1.000000          1                    1.000         TR
      154         1.000000          1                    1.000         TR
      155         1.000000          1                    1.000         TR
      156         1.000000          1                    1.000         TR
      157         1.000000          1                    1.000         TR
      158         1.000000          1                    1.000         TR
      159         1.000000          1                    1.000         TR
      160         1.000000          1                    1.000         TR
      161         1.000000          1                    1.000         TR
      162         1.000000          1                    1.000         TR
      163         1.000000          1                    1.000         TR
      164         1.000000          1                    1.000         TR
      165         1.000000          1                    1.000         TR
      166         1.000000          1                    1.000         TR
      167         1.000000          1                    1.000         TR
      168         1.000000          1                    1.000         TR
      169         1.000000          1                    1.000         TR
      170         1.000000          1                    1.000         TR
      171         1.000000          1                    1.000         TR
      172         1.000000          1                    1.000         TR
      173         1.000000          1                    1.000         TR
      174         1.000000          1                    1.000         TR
      175         1.000000          1                    1.000         TR
      176         1.000000          1                    1.000         TR
      177         1.000000          1                    1.000         TR
      178         1.000000          1                    1.000         TR
      179         1.000000          1                    1.000         TR
      180         1.000000          1                    1.000         TR
      181         1.000000          1                    1.000         TR
      182         1.000000          1                    1.000         TR
      183         1.000000          1                    1.000         TR
      184         1.000000          1                    1.000         TR
      185         1.000000          1                    1.000         TR
      186         1.000000          1                    1.000         TR
      187         1.000000          1                    1.000         TR
      188         1.000000          1                    1.000         TR
      189         1.000000          1                    1.000         TR
      190         1.000000          1                    1.000         TR
      191         1.000000          1                    1.000         TR
      192         1.000000          1                    1.000         TR
      193         1.000000          1                    1.000         TR
      194         1.000000          1                    1.000         TR
      195         1.000000          1                    1.000         TR
      196         1.000000          1                    1.000         TR
      197         1.000000          1                    1.000         TR
      198         1.000000          1                    1.000         TR
      199         1.000000          1                    1.000         TR
      200         1.000000          1                    1.000         TR
      201         1.000000          1                    1.000         TR
      202         1.000000          1                    1.000         TR
      203         1.000000          1                    1.000         TR
      204         1.000000          1                    1.000         TR
      205         1.000000          1                    1.000         TR
      206         1.000000          1                    1.000         TR
      207         1.000000          1                    1.000         TR
      208         1.000000          1                    1.000         TR
      209         1.000000          1                    1.000         TR
      210         1.000000          1                    1.000         TR
      211         1.000000          1                    1.000         TR
      212         1.000000          1                    1.000         TR
      213         1.000000          1                    1.000         TR
      214         1.000000          1                    1.000         TR
      215         1.000000          1                    1.000         TR
      216         1.000000          1                    1.000         TR
      217         1.000000          1                    1.000         TR
      218         1.000000          1                    1.000         TR
      219         1.000000          1                    1.000         TR
      220         1.000000          1                    1.000         TR
      221         1.000000          1                    1.000         TR
      222         1.000000          1                    1.000         TR
      223         1.000000          1                    1.000         TR
      224         1.000000          1                    1.000         TR
      225         1.000000          1                    1.000         TR
      226         1.000000          1                    1.000         TR
      227         1.000000          1                    1.000         TR
      228         1.000000          1                    1.000         TR
      229         1.000000          1                    1.000         TR
      230         1.000000          1                    1.000         TR
      231         1.000000          1                    1.000         TR
      232         1.000000          1                    1.000         TR
      233         1.000000          1                    1.000         TR
      234         1.000000          1                    1.000         TR
      235         1.000000          1                    1.000         TR
      236         1.000000          1                    1.000         TR
      237         1.000000          1                    1.000         TR
      238         1.000000          1                    1.000         TR
      239         1.000000          1                    1.000         TR
      240         1.000000          1                    1.000         TR
      241         1.000000          1                    1.000         TR
      242         1.000000          1                    1.000         TR
      243         1.000000          1                    1.000         TR
      244         1.000000          1                    1.000         TR
      245         1.000000          1                    1.000         TR
      246         1.000000          1                    1.000         TR
      247         1.000000          1                    1.000         TR
      248         1.000000          1                    1.000         TR
      249         1.000000          1                    1.000         TR
      250         1.000000          1                    1.000         TR
      251         1.000000          1                    1.000         TR
      252         1.000000          1                    1.000         TR
      253         1.000000          1                    1.000         TR
      254         1.000000          1                    1.000         TR
      255         1.000000          1                    1.000         TR
      256         1.000000          1                    1.000         TR
      257         1.000000          1                    1.000         TR
      258         1.000000          1                    1.000         TR
      259         1.000000          1                    1.000         TR
      260         1.000000          1                    1.000         TR
      261         1.000000          1                    1.000         TR
      262         1.000000          1                    1.000         TR
      263         1.000000          1                    1.000         TR
      264         1.000000          1                    1.000         TR
      265         1.000000          1                    1.000         TR
      266         1.000000          1                    1.000         TR
      267         1.000000          1                    1.000         TR
      268         1.000000          1                    1.000         TR
      269         1.000000          1                    1.000         TR
      270         1.000000          1                    1.000         TR
      271         1.000000          1                    1.000         TR
      272         1.000000          1                    1.000         TR

 COMBINED STEADY-STATE AND TRANSIENT SIMULATION



 
 # BAS6 package for  MODFLOW-2005, generated by Flopy.                           
 THE FREE FORMAT OPTION HAS BEEN SELECTED



                     BOUNDARY ARRAY FOR LAYER   1
 READING ON UNIT   13 WITH FORMAT: (1000I10)           



                     BOUNDARY ARRAY FOR LAYER   2
 READING ON UNIT   13 WITH FORMAT: (1000I10)           

 AQUIFER HEAD WILL BE SET TO  -999.99     AT ALL NO-FLOW NODES (IBOUND=0).

             INITIAL HEAD =   0.00000     FOR LAYER   1

             INITIAL HEAD =   0.00000     FOR LAYER   2
 # OC package for  MODFLOW-2005, generated by Flopy.

 OUTPUT CONTROL IS SPECIFIED ONLY AT TIME STEPS FOR WHICH OUTPUT IS DESIRED
 COMPACT CELL-BY-CELL BUDGET FILES WILL BE WRITTEN
 AUXILIARY DATA WILL BE SAVED IN CELL-BY-CELL BUDGET FILES
 HEAD PRINT FORMAT CODE IS   0    DRAWDOWN PRINT FORMAT CODE IS   0
 HEADS WILL BE SAVED ON UNIT   51    DRAWDOWNS WILL BE SAVED ON UNIT    0

 BCF -- BLOCK-CENTERED FLOW PACKAGE, VERSION 7, 5/2/2005
         INPUT READ FROM UNIT 15
 TRANSIENT SIMULATION
 HEAD AT CELLS THAT CONVERT TO DRY= -0.10000E+31
 WETTING CAPABILITY IS NOT ACTIVE
      LAYER  LAYER-TYPE CODE     INTERBLOCK T
      --------------------------------------------
         1            1          0 -- HARMONIC    
         2            3          0 -- HARMONIC    

 COLUMN TO ROW ANISOTROPY =   1.00000    

     PRIMARY STORAGE COEF =  0.150000     FOR LAYER   1

    HYD. COND. ALONG ROWS =   10.0000     FOR LAYER   1

 VERT HYD COND /THICKNESS =  1.000000E-04 FOR LAYER   1

     PRIMARY STORAGE COEF =  0.150000     FOR LAYER   2

    HYD. COND. ALONG ROWS =   10.0000     FOR LAYER   2

   SECONDARY STORAGE COEF =  0.150000     FOR LAYER   2

 RIV -- RIVER PACKAGE, VERSION 7, 5/2/2005 INPUT READ FROM UNIT   18
 # RIV package for  MODFLOW-2005, generated by Flopy.
 No named parameters
 MAXIMUM OF      2 ACTIVE RIVER REACHES AT ONE TIME


     0 River parameters

 RCH -- RECHARGE PACKAGE, VERSION 7, 5/2/2005 INPUT READ FROM UNIT   19
 # RCH package for  MODFLOW-2005, generated by Flopy.
 No named parameters
 OPTION 3 -- RECHARGE TO HIGHEST ACTIVE NODE IN EACH VERTICAL COLUMN


     0 Recharge parameters

 PCG -- CONJUGATE-GRADIENT SOLUTION PACKAGE, VERSION 7, 5/2/2005
 # PCG package for  MODFLOW-2005, generated by Flopy.
 MAXIMUM OF     50 CALLS OF SOLUTION ROUTINE
 MAXIMUM OF     30 INTERNAL ITERATIONS PER CALL TO SOLUTION ROUTINE
 MATRIX PRECONDITIONING TYPE :    1



                                    SOLUTION BY THE CONJUGATE-GRADIENT METHOD
                                   -------------------------------------------
                    MAXIMUM NUMBER OF CALLS TO PCG ROUTINE =       50
                        MAXIMUM ITERATIONS PER CALL TO PCG =       30
                               MATRIX PRECONDITIONING TYPE =        1
        RELAXATION FACTOR (ONLY USED WITH PRECOND. TYPE 1) =    0.10000E+01
 PARAMETER OF POLYNOMIAL PRECOND. = 2 (2) OR IS CALCULATED :        0
                         HEAD CHANGE CRITERION FOR CLOSURE =    0.10000E-04
                     RESIDUAL CHANGE CRITERION FOR CLOSURE =    0.10000E-04
            PCG HEAD AND RESIDUAL CHANGE PRINTOUT INTERVAL =      999
     PRINTING FROM SOLVER IS LIMITED(1) OR SUPPRESSED (>1) =        3
                            STEADY-STATE DAMPING PARAMETER =    0.10000E+01
                               TRANSIENT DAMPING PARAMETER =    0.10000E+01
1
                            STRESS PERIOD NO.    1, LENGTH =   1.000000    
                            -----------------------------------------------

                              NUMBER OF TIME STEPS =     1

                               MULTIPLIER FOR DELT =     1.000

                            INITIAL TIME STEP SIZE =   1.000000    

 REACH NO.  LAYER   ROW   COL     STAGE      CONDUCTANCE     BOTTOM EL.         
 -------------------------------------------------------------------------------
      1      1      1      1       3.000           100.0           2.000    
      2      1      1   1000       3.000           100.0           2.000    

      2 RIVER REACHES

                 RECHARGE =  7.000000E-04
 
 SOLVING FOR HEAD 

 OUTPUT CONTROL FOR STRESS PERIOD    1   TIME STEP    1
    SAVE HEAD FOR ALL LAYERS

 HEAD WILL BE SAVED ON UNIT   51 AT END OF TIME STEP    1, STRESS PERIOD    1
1
  VOLUMETRIC BUDGET FOR ENTIRE MODEL AT END OF TIME STEP    1, STRESS PERIOD   1
  ------------------------------------------------------------------------------

     CUMULATIVE VOLUMES      L**3       RATES FOR THIS TIME STEP      L**3/T
     ------------------                 ------------------------

           IN:                                      IN:
           ---                                      ---
             STORAGE =           0.0000               STORAGE =           0.0000
       CONSTANT HEAD =           0.0000         CONSTANT HEAD =           0.0000
       RIVER LEAKAGE =           0.0000         RIVER LEAKAGE =           0.0000
            RECHARGE =           7.0000              RECHARGE =           7.0000

            TOTAL IN =           7.0000              TOTAL IN =           7.0000

          OUT:                                     OUT:
          ----                                     ----
             STORAGE =           0.0000               STORAGE =           0.0000
       CONSTANT HEAD =           3.2546         CONSTANT HEAD =           3.2546
       RIVER LEAKAGE =           3.7454         RIVER LEAKAGE =           3.7454
            RECHARGE =           0.0000              RECHARGE =           0.0000

           TOTAL OUT =           7.0000             TOTAL OUT =           7.0000

            IN - OUT =       2.2888E-05              IN - OUT =       2.2888E-05

 PERCENT DISCREPANCY =           0.00     PERCENT DISCREPANCY =           0.00






         TIME SUMMARY AT END OF TIME STEP    1 IN STRESS PERIOD    1
                    SECONDS     MINUTES      HOURS       DAYS        YEARS
                    -----------------------------------------------------------
   TIME STEP LENGTH  86400.      1440.0      24.000      1.0000     2.73785E-03
 STRESS PERIOD TIME  86400.      1440.0      24.000      1.0000     2.73785E-03
         TOTAL TIME  86400.      1440.0      24.000      1.0000     2.73785E-03
1
1
                            STRESS PERIOD NO.    2, LENGTH =   1.000000    
                            -----------------------------------------------

                              NUMBER OF TIME STEPS =     1

                               MULTIPLIER FOR DELT =     1.000

                            INITIAL TIME STEP SIZE =   1.000000    

 REUSING NON-PARAMETER RIVER REACHES FROM LAST STRESS PERIOD

      2 RIVER REACHES

                 RECHARGE = -6.750000E-04
 
 SOLVING FOR HEAD 

 OUTPUT CONTROL FOR STRESS PERIOD    2   TIME STEP    1
    SAVE HEAD FOR ALL LAYERS

 HEAD WILL BE SAVED ON UNIT   51 AT END OF TIME STEP    1, STRESS PERIOD    2
1
  VOLUMETRIC BUDGET FOR ENTIRE MODEL AT END OF TIME STEP    1, STRESS PERIOD   2
  ------------------------------------------------------------------------------

     CUMULATIVE VOLUMES      L**3       RATES FOR THIS TIME STEP      L**3/T
     ------------------                 ------------------------

           IN:                                      IN:
           ---                                      ---
             STORAGE =          13.2678               STORAGE =          13.2678
       CONSTANT HEAD =           0.0000         CONSTANT HEAD =           0.0000
       RIVER LEAKAGE =           0.0000         RIVER LEAKAGE =           0.0000
            RECHARGE =           7.0000              RECHARGE =           0.0000

            TOTAL IN =          20.2678              TOTAL IN =          13.2678

          OUT:                                     OUT:
          ----                                     ----
             STORAGE =           0.0000               STORAGE =           0.0000
       CONSTANT HEAD =           6.5086         CONSTANT HEAD =           3.2541
       RIVER LEAKAGE =           7.0090         RIVER LEAKAGE =           3.2636
            RECHARGE =           6.7500              RECHARGE =           6.7500

           TOTAL OUT =          20.2676             TOTAL OUT =          13.2677

            IN - OUT =       1.3733E-04              IN - OUT =       1.1444E-04

 PERCENT DISCREPANCY =           0.00     PERCENT DISCREPANCY =           0.00






         TIME SUMMARY AT END OF TIME STEP    1 IN STRESS PERIOD    2
                    SECONDS     MINUTES      HOURS       DAYS        YEARS
                    -----------------------------------------------------------
   TIME STEP LENGTH  86400.      1440.0      24.000      1.0000     2.73785E-03
 STRESS PERIOD TIME  86400.      1440.0      24.000      1.0000     2.73785E-03
         TOTAL TIME 1.72800E+05  2880.0      48.000      2.0000     5.47570E-03
1
1
                            STRESS PERIOD NO.    3, LENGTH =   1.000000    
                            -----------------------------------------------

                              NUMBER OF TIME STEPS =     1

                               MULTIPLIER FOR DELT =     1.000

                            INITIAL TIME STEP SIZE =   1.000000    

 REUSING NON-PARAMETER RIVER REACHES FROM LAST STRESS PERIOD

      2 RIVER REACHES

                 RECHARGE = -7.000000E-04
 
 SOLVING FOR HEAD 

 OUTPUT CONTROL FOR STRESS PERIOD    3   TIME STEP    1
    SAVE HEAD FOR ALL LAYERS

 HEAD WILL BE SAVED ON UNIT   51 AT END OF TIME STEP    1, STRESS PERIOD    3
1
  VOLUMETRIC BUDGET FOR ENTIRE MODEL AT END OF TIME STEP    1, STRESS PERIOD   3
  ------------------------------------------------------------------------------

     CUMULATIVE VOLUMES      L**3       RATES FOR THIS TIME STEP      L**3/T
     ------------------                 ------------------------

           IN:                                      IN:
           ---                                      ---
             STORAGE =          26.4752               STORAGE =          13.2074
       CONSTANT HEAD =           0.0000         CONSTANT HEAD =           0.0000
       RIVER LEAKAGE =           0.0000         RIVER LEAKAGE =           0.0000
            RECHARGE =           7.0000              RECHARGE =           0.0000

            TOTAL IN =          33.4752              TOTAL IN =          13.2074

          OUT:                                     OUT:
          ----                                     ----
             STORAGE =           0.0000               STORAGE =           0.0000
       CONSTANT HEAD =           9.7620         CONSTANT HEAD =           3.2534
       RIVER LEAKAGE =           9.9630         RIVER LEAKAGE =           2.9540
            RECHARGE =          13.7500              RECHARGE =           7.0000

           TOTAL OUT =          33.4750             TOTAL OUT =          13.2074

            IN - OUT =       1.1444E-04              IN - OUT =      -2.1935E-05

 PERCENT DISCREPANCY =           0.00     PERCENT DISCREPANCY =          -0.00






         TIME SUMMARY AT END OF TIME STEP    1 IN STRESS PERIOD    3
                    SECONDS     MINUTES      HOURS       DAYS        YEARS
                    -----------------------------------------------------------
   TIME STEP LENGTH  86400.      1440.0      24.000      1.0000     2.73785E-03
 STRESS PERIOD TIME  86400.      1440.0      24.000      1.0000     2.73785E-03
         TOTAL TIME 2.59200E+05  4320.0      72.000      3.0000     8.21355E-03
1
1
                            STRESS PERIOD NO.    4, LENGTH =   1.000000    
                            -----------------------------------------------

                              NUMBER OF TIME STEPS =     1

                               MULTIPLIER FOR DELT =     1.000

                            INITIAL TIME STEP SIZE =   1.000000    

 REUSING NON-PARAMETER RIVER REACHES FROM LAST STRESS PERIOD

      2 RIVER REACHES

                 RECHARGE = -7.750000E-04
 
 SOLVING FOR HEAD 

 OUTPUT CONTROL FOR STRESS PERIOD    4   TIME STEP    1
    SAVE HEAD FOR ALL LAYERS

 HEAD WILL BE SAVED ON UNIT   51 AT END OF TIME STEP    1, STRESS PERIOD    4
1
  VOLUMETRIC BUDGET FOR ENTIRE MODEL AT END OF TIME STEP    1, STRESS PERIOD   4
  ------------------------------------------------------------------------------

     CUMULATIVE VOLUMES      L**3       RATES FOR THIS TIME STEP      L**3/T
     ------------------                 ------------------------

           IN:                                      IN:
           ---                                      ---
             STORAGE =          40.1668               STORAGE =          13.6916
       CONSTANT HEAD =           0.0000         CONSTANT HEAD =           0.0000
       RIVER LEAKAGE =           0.0000         RIVER LEAKAGE =           0.0000
            RECHARGE =           7.0000              RECHARGE =           0.0000

            TOTAL IN =          47.1668              TOTAL IN =          13.6916

          OUT:                                     OUT:
          ----                                     ----
             STORAGE =           0.0000               STORAGE =           0.0000
       CONSTANT HEAD =          13.0145         CONSTANT HEAD =           3.2525
       RIVER LEAKAGE =          12.6521         RIVER LEAKAGE =           2.6891
            RECHARGE =          21.5000              RECHARGE =           7.7500

           TOTAL OUT =          47.1666             TOTAL OUT =          13.6916

            IN - OUT =       1.6403E-04              IN - OUT =       4.4823E-05

 PERCENT DISCREPANCY =           0.00     PERCENT DISCREPANCY =           0.00






         TIME SUMMARY AT END OF TIME STEP    1 IN STRESS PERIOD    4
                    SECONDS     MINUTES      HOURS       DAYS        YEARS
                    -----------------------------------------------------------
   TIME STEP LENGTH  86400.      1440.0      24.000      1.0000     2.73785E-03
 STRESS PERIOD TIME  86400.      1440.0      24.000      1.0000     2.73785E-03
         TOTAL TIME 3.45600E+05  5760.0      96.000      4.0000     1.09514E-02
1
1
                            STRESS PERIOD NO.    5, LENGTH =   1.000000    
                            -----------------------------------------------

                              NUMBER OF TIME STEPS =     1

                               MULTIPLIER FOR DELT =     1.000

                            INITIAL TIME STEP SIZE =   1.000000    

 REUSING NON-PARAMETER RIVER REACHES FROM LAST STRESS PERIOD

      2 RIVER REACHES

                 RECHARGE = -4.750000E-04
 
 SOLVING FOR HEAD 

 OUTPUT CONTROL FOR STRESS PERIOD    5   TIME STEP    1
    SAVE HEAD FOR ALL LAYERS

 HEAD WILL BE SAVED ON UNIT   51 AT END OF TIME STEP    1, STRESS PERIOD    5
1
  VOLUMETRIC BUDGET FOR ENTIRE MODEL AT END OF TIME STEP    1, STRESS PERIOD   5
  ------------------------------------------------------------------------------

     CUMULATIVE VOLUMES      L**3       RATES FOR THIS TIME STEP      L**3/T
     ------------------                 ------------------------

           IN:                                      IN:
           ---                                      ---
             STORAGE =          50.7450               STORAGE =          10.5783
       CONSTANT HEAD =           0.0000         CONSTANT HEAD =           0.0000
       RIVER LEAKAGE =           0.0000         RIVER LEAKAGE =           0.0000
            RECHARGE =           7.0000              RECHARGE =           0.0000

            TOTAL IN =          57.7450              TOTAL IN =          10.5783

          OUT:                                     OUT:
          ----                                     ----
             STORAGE =           0.0000               STORAGE =           0.0000
       CONSTANT HEAD =          16.2661         CONSTANT HEAD =           3.2516
       RIVER LEAKAGE =          15.2290         RIVER LEAKAGE =           2.5769
            RECHARGE =          26.2500              RECHARGE =           4.7500

           TOTAL OUT =          57.7451             TOTAL OUT =          10.5785

            IN - OUT =      -4.1962E-05              IN - OUT =      -2.0504E-04

 PERCENT DISCREPANCY =          -0.00     PERCENT DISCREPANCY =          -0.00






         TIME SUMMARY AT END OF TIME STEP    1 IN STRESS PERIOD    5
                    SECONDS     MINUTES      HOURS       DAYS        YEARS
                    -----------------------------------------------------------
   TIME STEP LENGTH  86400.      1440.0      24.000      1.0000     2.73785E-03
 STRESS PERIOD TIME  86400.      1440.0      24.000      1.0000     2.73785E-03
         TOTAL TIME 4.32000E+05  7200.0      120.00      5.0000     1.36893E-02
1
1
                            STRESS PERIOD NO.    6, LENGTH =   1.000000    
                            -----------------------------------------------

                              NUMBER OF TIME STEPS =     1

                               MULTIPLIER FOR DELT =     1.000

                            INITIAL TIME STEP SIZE =   1.000000    

 REUSING NON-PARAMETER RIVER REACHES FROM LAST STRESS PERIOD

      2 RIVER REACHES

                 RECHARGE =  8.000000E-04
 
 SOLVING FOR HEAD 

 OUTPUT CONTROL FOR STRESS PERIOD    6   TIME STEP    1
    SAVE HEAD FOR ALL LAYERS

 HEAD WILL BE SAVED ON UNIT   51 AT END OF TIME STEP    1, STRESS PERIOD    6
1
  VOLUMETRIC BUDGET FOR ENTIRE MODEL AT END OF TIME STEP    1, STRESS PERIOD   6
  ------------------------------------------------------------------------------

     CUMULATIVE VOLUMES      L**3       RATES FOR THIS TIME STEP      L**3/T
     ------------------                 ------------------------

           IN:                                      IN:
           ---                                      ---
             STORAGE =          50.7739               STORAGE =       2.8907E-02
       CONSTANT HEAD =           0.0000         CONSTANT HEAD =           0.0000
       RIVER LEAKAGE =           0.0000         RIVER LEAKAGE =           0.0000
            RECHARGE =          15.0000              RECHARGE =           8.0000

            TOTAL IN =          65.7739              TOTAL IN =           8.0289

          OUT:                                     OUT:
          ----                                     ----
             STORAGE =           1.8783               STORAGE =           1.8783
       CONSTANT HEAD =          19.5171         CONSTANT HEAD =           3.2510
       RIVER LEAKAGE =          18.1284         RIVER LEAKAGE =           2.8995
            RECHARGE =          26.2500              RECHARGE =           0.0000

           TOTAL OUT =          65.7738             TOTAL OUT =           8.0288

            IN - OUT =       9.1553E-05              IN - OUT =       1.3351E-04

 PERCENT DISCREPANCY =           0.00     PERCENT DISCREPANCY =           0.00






         TIME SUMMARY AT END OF TIME STEP    1 IN STRESS PERIOD    6
                    SECONDS     MINUTES      HOURS       DAYS        YEARS
                    -----------------------------------------------------------
   TIME STEP LENGTH  86400.      1440.0      24.000      1.0000     2.73785E-03
 STRESS PERIOD TIME  86400.      1440.0      24.000      1.0000     2.73785E-03
         TOTAL TIME 5.18400E+05  8640.0      144.00      6.0000     1.64271E-02
1
1
                            STRESS PERIOD NO.    7, LENGTH =   1.000000    
                            -----------------------------------------------

                              NUMBER OF TIME STEPS =     1

                               MULTIPLIER FOR DELT =     1.000

                            INITIAL TIME STEP SIZE =   1.000000    

 REUSING NON-PARAMETER RIVER REACHES FROM LAST STRESS PERIOD

      2 RIVER REACHES

                 RECHARGE = -1.500000E-03
 
 SOLVING FOR HEAD 

 OUTPUT CONTROL FOR STRESS PERIOD    7   TIME STEP    1
    SAVE HEAD FOR ALL LAYERS

 HEAD WILL BE SAVED ON UNIT   51 AT END OF TIME STEP    1, STRESS PERIOD    7
1
  VOLUMETRIC BUDGET FOR ENTIRE MODEL AT END OF TIME STEP    1, STRESS PERIOD   7
  ------------------------------------------------------------------------------

     CUMULATIVE VOLUMES      L**3       RATES FOR THIS TIME STEP      L**3/T
     ------------------                 ------------------------

           IN:                                      IN:
           ---                                      ---
             STORAGE =          71.2773               STORAGE =          20.5034
       CONSTANT HEAD =           0.0000         CONSTANT HEAD =           0.0000
       RIVER LEAKAGE =           0.0000         RIVER LEAKAGE =           0.0000
            RECHARGE =          15.0000              RECHARGE =           0.0000

            TOTAL IN =          86.2773              TOTAL IN =          20.5034

          OUT:                                     OUT:
          ----                                     ----
             STORAGE =           1.8783               STORAGE =           0.0000
       CONSTANT HEAD =          22.7668         CONSTANT HEAD =           3.2498
       RIVER LEAKAGE =          20.3822         RIVER LEAKAGE =           2.2538
            RECHARGE =          41.2500              RECHARGE =          15.0000

           TOTAL OUT =          86.2774             TOTAL OUT =          20.5036

            IN - OUT =      -6.1035E-05              IN - OUT =      -1.5831E-04

 PERCENT DISCREPANCY =          -0.00     PERCENT DISCREPANCY =          -0.00






         TIME SUMMARY AT END OF TIME STEP    1 IN STRESS PERIOD    7
                    SECONDS     MINUTES      HOURS       DAYS        YEARS
                    -----------------------------------------------------------
   TIME STEP LENGTH  86400.      1440.0      24.000      1.0000     2.73785E-03
 STRESS PERIOD TIME  86400.      1440.0      24.000      1.0000     2.73785E-03
         TOTAL TIME 6.04800E+05  10080.      168.00      7.0000     1.91650E-02
1
1
                            STRESS PERIOD NO.    8, LENGTH =   1.000000    
                            -----------------------------------------------

                              NUMBER OF TIME STEPS =     1

                               MULTIPLIER FOR DELT =     1.000

                            INITIAL TIME STEP SIZE =   1.000000    

 REUSING NON-PARAMETER RIVER REACHES FROM LAST STRESS PERIOD

      2 RIVER REACHES

                 RECHARGE = -9.000000E-04
 
 SOLVING FOR HEAD 

 OUTPUT CONTROL FOR STRESS PERIOD    8   TIME STEP    1
    SAVE HEAD FOR ALL LAYERS

 HEAD WILL BE SAVED ON UNIT   51 AT END OF TIME STEP    1, STRESS PERIOD    8
1
  VOLUMETRIC BUDGET FOR ENTIRE MODEL AT END OF TIME STEP    1, STRESS PERIOD   8
  ------------------------------------------------------------------------------

     CUMULATIVE VOLUMES      L**3       RATES FOR THIS TIME STEP      L**3/T
     ------------------                 ------------------------

           IN:                                      IN:
           ---                                      ---
             STORAGE =          85.5900               STORAGE =          14.3127
       CONSTANT HEAD =           0.0000         CONSTANT HEAD =           0.0000
       RIVER LEAKAGE =           0.0000         RIVER LEAKAGE =           0.0000
            RECHARGE =          15.0000              RECHARGE =           0.0000

            TOTAL IN =         100.5900              TOTAL IN =          14.3127

          OUT:                                     OUT:
          ----                                     ----
             STORAGE =           1.8783               STORAGE =           0.0000
       CONSTANT HEAD =          26.0153         CONSTANT HEAD =           3.2485
       RIVER LEAKAGE =          22.4466         RIVER LEAKAGE =           2.0644
            RECHARGE =          50.2500              RECHARGE =           9.0000

           TOTAL OUT =         100.5902             TOTAL OUT =          14.3129

            IN - OUT =      -2.4414E-04              IN - OUT =      -1.8501E-04

 PERCENT DISCREPANCY =          -0.00     PERCENT DISCREPANCY =          -0.00






         TIME SUMMARY AT END OF TIME STEP    1 IN STRESS PERIOD    8
                    SECONDS     MINUTES      HOURS       DAYS        YEARS
                    -----------------------------------------------------------
   TIME STEP LENGTH  86400.      1440.0      24.000      1.0000     2.73785E-03
 STRESS PERIOD TIME  86400.      1440.0      24.000      1.0000     2.73785E-03
         TOTAL TIME 6.91200E+05  11520.      192.00      8.0000     2.19028E-02
1
1
                            STRESS PERIOD NO.    9, LENGTH =   1.000000    
                            -----------------------------------------------

                              NUMBER OF TIME STEPS =     1

                               MULTIPLIER FOR DELT =     1.000

                            INITIAL TIME STEP SIZE =   1.000000    

 REUSING NON-PARAMETER RIVER REACHES FROM LAST STRESS PERIOD

      2 RIVER REACHES

                 RECHARGE =  2.600000E-03
 
 SOLVING FOR HEAD 

 OUTPUT CONTROL FOR STRESS PERIOD    9   TIME STEP    1
    SAVE HEAD FOR ALL LAYERS

 HEAD WILL BE SAVED ON UNIT   51 AT END OF TIME STEP    1, STRESS PERIOD    9
1
  VOLUMETRIC BUDGET FOR ENTIRE MODEL AT END OF TIME STEP    1, STRESS PERIOD   9
  ------------------------------------------------------------------------------

     CUMULATIVE VOLUMES      L**3       RATES FOR THIS TIME STEP      L**3/T
     ------------------                 ------------------------

           IN:                                      IN:
           ---                                      ---
             STORAGE =          85.6261               STORAGE =       3.6090E-02
       CONSTANT HEAD =           0.0000         CONSTANT HEAD =           0.0000
       RIVER LEAKAGE =           0.0000         RIVER LEAKAGE =           0.0000
            RECHARGE =          41.0000              RECHARGE =          26.0000

            TOTAL IN =         126.6261              TOTAL IN =          26.0361

          OUT:                                     OUT:
          ----                                     ----
             STORAGE =          21.5602               STORAGE =          19.6819
       CONSTANT HEAD =          29.2635         CONSTANT HEAD =           3.2482
       RIVER LEAKAGE =          25.5526         RIVER LEAKAGE =           3.1059
            RECHARGE =          50.2500              RECHARGE =           0.0000

           TOTAL OUT =         126.6263             TOTAL OUT =          26.0361

            IN - OUT =      -2.5177E-04              IN - OUT =           0.0000

 PERCENT DISCREPANCY =          -0.00     PERCENT DISCREPANCY =           0.00






         TIME SUMMARY AT END OF TIME STEP    1 IN STRESS PERIOD    9
                    SECONDS     MINUTES      HOURS       DAYS        YEARS
                    -----------------------------------------------------------
   TIME STEP LENGTH  86400.      1440.0      24.000      1.0000     2.73785E-03
 STRESS PERIOD TIME  86400.      1440.0      24.000      1.0000     2.73785E-03
         TOTAL TIME 7.77600E+05  12960.      216.00      9.0000     2.46407E-02
1
1
                            STRESS PERIOD NO.   10, LENGTH =   1.000000    
                            -----------------------------------------------

                              NUMBER OF TIME STEPS =     1

                               MULTIPLIER FOR DELT =     1.000

                            INITIAL TIME STEP SIZE =   1.000000    

 REUSING NON-PARAMETER RIVER REACHES FROM LAST STRESS PERIOD

      2 RIVER REACHES

                 RECHARGE =  4.200000E-03
 
 SOLVING FOR HEAD 

 OUTPUT CONTROL FOR STRESS PERIOD   10   TIME STEP    1
    SAVE HEAD FOR ALL LAYERS

 HEAD WILL BE SAVED ON UNIT   51 AT END OF TIME STEP    1, STRESS PERIOD   10
1
  VOLUMETRIC BUDGET FOR ENTIRE MODEL AT END OF TIME STEP    1, STRESS PERIOD  10
  ------------------------------------------------------------------------------

     CUMULATIVE VOLUMES      L**3       RATES FOR THIS TIME STEP      L**3/T
     ------------------                 ------------------------

           IN:                                      IN:
           ---                                      ---
             STORAGE =          85.6409               STORAGE =       1.4803E-02
       CONSTANT HEAD =           0.0000         CONSTANT HEAD =           0.0000
       RIVER LEAKAGE =           0.0000         RIVER LEAKAGE =           0.0000
            RECHARGE =          83.0000              RECHARGE =          42.0000

            TOTAL IN =         168.6409              TOTAL IN =          42.0148

          OUT:                                     OUT:
          ----                                     ----
             STORAGE =          56.0622               STORAGE =          34.5020
       CONSTANT HEAD =          32.5126         CONSTANT HEAD =           3.2490
       RIVER LEAKAGE =          29.8161         RIVER LEAKAGE =           4.2636
            RECHARGE =          50.2500              RECHARGE =           0.0000

           TOTAL OUT =         168.6409             TOTAL OUT =          42.0146

            IN - OUT =      -3.0518E-05              IN - OUT =       2.2125E-04

 PERCENT DISCREPANCY =          -0.00     PERCENT DISCREPANCY =           0.00






         TIME SUMMARY AT END OF TIME STEP    1 IN STRESS PERIOD   10
                    SECONDS     MINUTES      HOURS       DAYS        YEARS
                    -----------------------------------------------------------
   TIME STEP LENGTH  86400.      1440.0      24.000      1.0000     2.73785E-03
 STRESS PERIOD TIME  86400.      1440.0      24.000      1.0000     2.73785E-03
         TOTAL TIME 8.64000E+05  14400.      240.00      10.000     2.73785E-02
1
1
                            STRESS PERIOD NO.   11, LENGTH =   1.000000    
                            -----------------------------------------------

                              NUMBER OF TIME STEPS =     1

                               MULTIPLIER FOR DELT =     1.000

                            INITIAL TIME STEP SIZE =   1.000000    

 REUSING NON-PARAMETER RIVER REACHES FROM LAST STRESS PERIOD

      2 RIVER REACHES

                 RECHARGE =  1.600000E-03
 
 SOLVING FOR HEAD 

 OUTPUT CONTROL FOR STRESS PERIOD   11   TIME STEP    1
    SAVE HEAD FOR ALL LAYERS

 HEAD WILL BE SAVED ON UNIT   51 AT END OF TIME STEP    1, STRESS PERIOD   11
1
  VOLUMETRIC BUDGET FOR ENTIRE MODEL AT END OF TIME STEP    1, STRESS PERIOD  11
  ------------------------------------------------------------------------------

     CUMULATIVE VOLUMES      L**3       RATES FOR THIS TIME STEP      L**3/T
     ------------------                 ------------------------

           IN:                                      IN:
           ---                                      ---
             STORAGE =          85.6748               STORAGE =       3.3946E-02
       CONSTANT HEAD =           0.0000         CONSTANT HEAD =           0.0000
       RIVER LEAKAGE =           0.0000         RIVER LEAKAGE =           0.0000
            RECHARGE =          99.0000              RECHARGE =          16.0000

            TOTAL IN =         184.6748              TOTAL IN =          16.0339

          OUT:                                     OUT:
          ----                                     ----
             STORAGE =          64.7056               STORAGE =           8.6434
       CONSTANT HEAD =          35.7620         CONSTANT HEAD =           3.2495
       RIVER LEAKAGE =          33.9570         RIVER LEAKAGE =           4.1409
            RECHARGE =          50.2500              RECHARGE =           0.0000

           TOTAL OUT =         184.6747             TOTAL OUT =          16.0337

            IN - OUT =       1.8311E-04              IN - OUT =       2.1935E-04

 PERCENT DISCREPANCY =           0.00     PERCENT DISCREPANCY =           0.00






         TIME SUMMARY AT END OF TIME STEP    1 IN STRESS PERIOD   11
                    SECONDS     MINUTES      HOURS       DAYS        YEARS
                    -----------------------------------------------------------
   TIME STEP LENGTH  86400.      1440.0      24.000      1.0000     2.73785E-03
 STRESS PERIOD TIME  86400.      1440.0      24.000      1.0000     2.73785E-03
         TOTAL TIME 9.50400E+05  15840.      264.00      11.000     3.01164E-02
1
1
                            STRESS PERIOD NO.   12, LENGTH =   1.000000    
                            -----------------------------------------------

                              NUMBER OF TIME STEPS =     1

                               MULTIPLIER FOR DELT =     1.000

                            INITIAL TIME STEP SIZE =   1.000000    

 REUSING NON-PARAMETER RIVER REACHES FROM LAST STRESS PERIOD

      2 RIVER REACHES

                 RECHARGE =  3.300000E-03
 
 SOLVING FOR HEAD 

 OUTPUT CONTROL FOR STRESS PERIOD   12   TIME STEP    1
    SAVE HEAD FOR ALL LAYERS

 HEAD WILL BE SAVED ON UNIT   51 AT END OF TIME STEP    1, STRESS PERIOD   12
1
  VOLUMETRIC BUDGET FOR ENTIRE MODEL AT END OF TIME STEP    1, STRESS PERIOD  12
  ------------------------------------------------------------------------------

     CUMULATIVE VOLUMES      L**3       RATES FOR THIS TIME STEP      L**3/T
     ------------------                 ------------------------

           IN:                                      IN:
           ---                                      ---
             STORAGE =          85.6749               STORAGE =       8.4877E-05
       CONSTANT HEAD =           0.0000         CONSTANT HEAD =           0.0000
       RIVER LEAKAGE =           0.0000         RIVER LEAKAGE =           0.0000
            RECHARGE =         132.0000              RECHARGE =          33.0000

            TOTAL IN =         217.6749              TOTAL IN =          33.0001

          OUT:                                     OUT:
          ----                                     ----
             STORAGE =          89.6600               STORAGE =          24.9544
       CONSTANT HEAD =          39.0125         CONSTANT HEAD =           3.2505
       RIVER LEAKAGE =          38.7522         RIVER LEAKAGE =           4.7952
            RECHARGE =          50.2500              RECHARGE =           0.0000

           TOTAL OUT =         217.6747             TOTAL OUT =          33.0001

            IN - OUT =       1.9836E-04              IN - OUT =       2.2888E-05

 PERCENT DISCREPANCY =           0.00     PERCENT DISCREPANCY =           0.00






         TIME SUMMARY AT END OF TIME STEP    1 IN STRESS PERIOD   12
                    SECONDS     MINUTES      HOURS       DAYS        YEARS
                    -----------------------------------------------------------
   TIME STEP LENGTH  86400.      1440.0      24.000      1.0000     2.73785E-03
 STRESS PERIOD TIME  86400.      1440.0      24.000      1.0000     2.73785E-03
         TOTAL TIME 1.03680E+06  17280.      288.00      12.000     3.28542E-02
1
1
                            STRESS PERIOD NO.   13, LENGTH =   1.000000    
                            -----------------------------------------------

                              NUMBER OF TIME STEPS =     1

                               MULTIPLIER FOR DELT =     1.000

                            INITIAL TIME STEP SIZE =   1.000000    

 REUSING NON-PARAMETER RIVER REACHES FROM LAST STRESS PERIOD

      2 RIVER REACHES

                 RECHARGE =  4.000000E-04
 
 SOLVING FOR HEAD 

 OUTPUT CONTROL FOR STRESS PERIOD   13   TIME STEP    1
    SAVE HEAD FOR ALL LAYERS

 HEAD WILL BE SAVED ON UNIT   51 AT END OF TIME STEP    1, STRESS PERIOD   13
1
  VOLUMETRIC BUDGET FOR ENTIRE MODEL AT END OF TIME STEP    1, STRESS PERIOD  13
  ------------------------------------------------------------------------------

     CUMULATIVE VOLUMES      L**3       RATES FOR THIS TIME STEP      L**3/T
     ------------------                 ------------------------

           IN:                                      IN:
           ---                                      ---
             STORAGE =          89.1729               STORAGE =           3.4980
       CONSTANT HEAD =           0.0000         CONSTANT HEAD =           0.0000
       RIVER LEAKAGE =           0.0000         RIVER LEAKAGE =           0.0000
            RECHARGE =         136.0000              RECHARGE =           4.0000

            TOTAL IN =         225.1729              TOTAL IN =           7.4980

          OUT:                                     OUT:
          ----                                     ----
             STORAGE =          89.6649               STORAGE =       4.9314E-03
       CONSTANT HEAD =          42.2633         CONSTANT HEAD =           3.2508
       RIVER LEAKAGE =          42.9945         RIVER LEAKAGE =           4.2423
            RECHARGE =          50.2500              RECHARGE =           0.0000

           TOTAL OUT =         225.1728             TOTAL OUT =           7.4981

            IN - OUT =       7.6294E-05              IN - OUT =      -1.2159E-04

 PERCENT DISCREPANCY =           0.00     PERCENT DISCREPANCY =          -0.00






         TIME SUMMARY AT END OF TIME STEP    1 IN STRESS PERIOD   13
                    SECONDS     MINUTES      HOURS       DAYS        YEARS
                    -----------------------------------------------------------
   TIME STEP LENGTH  86400.      1440.0      24.000      1.0000     2.73785E-03
 STRESS PERIOD TIME  86400.      1440.0      24.000      1.0000     2.73785E-03
         TOTAL TIME 1.12320E+06  18720.      312.00      13.000     3.55921E-02
1
1
                            STRESS PERIOD NO.   14, LENGTH =   1.000000    
                            -----------------------------------------------

                              NUMBER OF TIME STEPS =     1

                               MULTIPLIER FOR DELT =     1.000

                            INITIAL TIME STEP SIZE =   1.000000    

 REUSING NON-PARAMETER RIVER REACHES FROM LAST STRESS PERIOD

      2 RIVER REACHES

                 RECHARGE =  1.000000E-04
 
 SOLVING FOR HEAD 

 OUTPUT CONTROL FOR STRESS PERIOD   14   TIME STEP    1
    SAVE HEAD FOR ALL LAYERS

 HEAD WILL BE SAVED ON UNIT   51 AT END OF TIME STEP    1, STRESS PERIOD   14
1
  VOLUMETRIC BUDGET FOR ENTIRE MODEL AT END OF TIME STEP    1, STRESS PERIOD  14
  ------------------------------------------------------------------------------

     CUMULATIVE VOLUMES      L**3       RATES FOR THIS TIME STEP      L**3/T
     ------------------                 ------------------------

           IN:                                      IN:
           ---                                      ---
             STORAGE =          95.3147               STORAGE =           6.1419
       CONSTANT HEAD =           0.0000         CONSTANT HEAD =           0.0000
       RIVER LEAKAGE =           0.0000         RIVER LEAKAGE =           0.0000
            RECHARGE =         137.0000              RECHARGE =           1.0000

            TOTAL IN =         232.3147              TOTAL IN =           7.1419

          OUT:                                     OUT:
          ----                                     ----
             STORAGE =          89.6672               STORAGE =       2.2736E-03
       CONSTANT HEAD =          45.5142         CONSTANT HEAD =           3.2509
       RIVER LEAKAGE =          46.8832         RIVER LEAKAGE =           3.8887
            RECHARGE =          50.2500              RECHARGE =           0.0000

           TOTAL OUT =         232.3146             TOTAL OUT =           7.1418

            IN - OUT =       1.3733E-04              IN - OUT =       4.3869E-05

 PERCENT DISCREPANCY =           0.00     PERCENT DISCREPANCY =           0.00






         TIME SUMMARY AT END OF TIME STEP    1 IN STRESS PERIOD   14
                    SECONDS     MINUTES      HOURS       DAYS        YEARS
                    -----------------------------------------------------------
   TIME STEP LENGTH  86400.      1440.0      24.000      1.0000     2.73785E-03
 STRESS PERIOD TIME  86400.      1440.0      24.000      1.0000     2.73785E-03
         TOTAL TIME 1.20960E+06  20160.      336.00      14.000     3.83299E-02
1
1
                            STRESS PERIOD NO.   15, LENGTH =   1.000000    
                            -----------------------------------------------

                              NUMBER OF TIME STEPS =     1

                               MULTIPLIER FOR DELT =     1.000

                            INITIAL TIME STEP SIZE =   1.000000    

 REUSING NON-PARAMETER RIVER REACHES FROM LAST STRESS PERIOD

      2 RIVER REACHES

                 RECHARGE =  6.800000E-03
 
 SOLVING FOR HEAD 

 OUTPUT CONTROL FOR STRESS PERIOD   15   TIME STEP    1
    SAVE HEAD FOR ALL LAYERS

 HEAD WILL BE SAVED ON UNIT   51 AT END OF TIME STEP    1, STRESS PERIOD   15
1
  VOLUMETRIC BUDGET FOR ENTIRE MODEL AT END OF TIME STEP    1, STRESS PERIOD  15
  ------------------------------------------------------------------------------

     CUMULATIVE VOLUMES      L**3       RATES FOR THIS TIME STEP      L**3/T
     ------------------                 ------------------------

           IN:                                      IN:
           ---                                      ---
             STORAGE =          95.3147               STORAGE =           0.0000
       CONSTANT HEAD =           0.0000         CONSTANT HEAD =           0.0000
       RIVER LEAKAGE =           0.0000         RIVER LEAKAGE =           0.0000
            RECHARGE =         205.0000              RECHARGE =          68.0000

            TOTAL IN =         300.3148              TOTAL IN =          68.0000

          OUT:                                     OUT:
          ----                                     ----
             STORAGE =         148.3928               STORAGE =          58.7256
       CONSTANT HEAD =          48.7673         CONSTANT HEAD =           3.2531
       RIVER LEAKAGE =          52.9044         RIVER LEAKAGE =           6.0212
            RECHARGE =          50.2500              RECHARGE =           0.0000

           TOTAL OUT =         300.3145             TOTAL OUT =          67.9999

            IN - OUT =       3.0518E-04              IN - OUT =       1.3733E-04

 PERCENT DISCREPANCY =           0.00     PERCENT DISCREPANCY =           0.00






         TIME SUMMARY AT END OF TIME STEP    1 IN STRESS PERIOD   15
                    SECONDS     MINUTES      HOURS       DAYS        YEARS
                    -----------------------------------------------------------
   TIME STEP LENGTH  86400.      1440.0      24.000      1.0000     2.73785E-03
 STRESS PERIOD TIME  86400.      1440.0      24.000      1.0000     2.73785E-03
         TOTAL TIME 1.29600E+06  21600.      360.00      15.000     4.10678E-02
1
1
                            STRESS PERIOD NO.   16, LENGTH =   1.000000    
                            -----------------------------------------------

                              NUMBER OF TIME STEPS =     1

                               MULTIPLIER FOR DELT =     1.000

                            INITIAL TIME STEP SIZE =   1.000000    

 REUSING NON-PARAMETER RIVER REACHES FROM LAST STRESS PERIOD

      2 RIVER REACHES

                 RECHARGE = -1.775000E-03
 
 SOLVING FOR HEAD 

 OUTPUT CONTROL FOR STRESS PERIOD   16   TIME STEP    1
    SAVE HEAD FOR ALL LAYERS

 HEAD WILL BE SAVED ON UNIT   51 AT END OF TIME STEP    1, STRESS PERIOD   16
1
  VOLUMETRIC BUDGET FOR ENTIRE MODEL AT END OF TIME STEP    1, STRESS PERIOD  16
  ------------------------------------------------------------------------------

     CUMULATIVE VOLUMES      L**3       RATES FOR THIS TIME STEP      L**3/T
     ------------------                 ------------------------

           IN:                                      IN:
           ---                                      ---
             STORAGE =         120.6598               STORAGE =          25.3451
       CONSTANT HEAD =           0.0000         CONSTANT HEAD =           0.0000
       RIVER LEAKAGE =           0.0000         RIVER LEAKAGE =           0.0000
            RECHARGE =         205.0000              RECHARGE =           0.0000

            TOTAL IN =         325.6599              TOTAL IN =          25.3451

          OUT:                                     OUT:
          ----                                     ----
             STORAGE =         148.4129               STORAGE =       2.0089E-02
       CONSTANT HEAD =          52.0205         CONSTANT HEAD =           3.2532
       RIVER LEAKAGE =          57.2264         RIVER LEAKAGE =           4.3220
            RECHARGE =          68.0000              RECHARGE =          17.7500

           TOTAL OUT =         325.6598             TOTAL OUT =          25.3453

            IN - OUT =       9.1553E-05              IN - OUT =      -1.9264E-04

 PERCENT DISCREPANCY =           0.00     PERCENT DISCREPANCY =          -0.00






         TIME SUMMARY AT END OF TIME STEP    1 IN STRESS PERIOD   16
                    SECONDS     MINUTES      HOURS       DAYS        YEARS
                    -----------------------------------------------------------
   TIME STEP LENGTH  86400.      1440.0      24.000      1.0000     2.73785E-03
 STRESS PERIOD TIME  86400.      1440.0      24.000      1.0000     2.73785E-03
         TOTAL TIME 1.38240E+06  23040.      384.00      16.000     4.38056E-02
1
1
                            STRESS PERIOD NO.   17, LENGTH =   1.000000    
                            -----------------------------------------------

                              NUMBER OF TIME STEPS =     1

                               MULTIPLIER FOR DELT =     1.000

                            INITIAL TIME STEP SIZE =   1.000000    

 REUSING NON-PARAMETER RIVER REACHES FROM LAST STRESS PERIOD

      2 RIVER REACHES

                 RECHARGE =   0.00000    
 
 SOLVING FOR HEAD 

 OUTPUT CONTROL FOR STRESS PERIOD   17   TIME STEP    1
    SAVE HEAD FOR ALL LAYERS

 HEAD WILL BE SAVED ON UNIT   51 AT END OF TIME STEP    1, STRESS PERIOD   17
1
  VOLUMETRIC BUDGET FOR ENTIRE MODEL AT END OF TIME STEP    1, STRESS PERIOD  17
  ------------------------------------------------------------------------------

     CUMULATIVE VOLUMES      L**3       RATES FOR THIS TIME STEP      L**3/T
     ------------------                 ------------------------

           IN:                                      IN:
           ---                                      ---
             STORAGE =         128.0065               STORAGE =           7.3466
       CONSTANT HEAD =           0.0000         CONSTANT HEAD =           0.0000
       RIVER LEAKAGE =           0.0000         RIVER LEAKAGE =           0.0000
            RECHARGE =         205.0000              RECHARGE =           0.0000

            TOTAL IN =         333.0065              TOTAL IN =           7.3466

          OUT:                                     OUT:
          ----                                     ----
             STORAGE =         148.4279               STORAGE =       1.5037E-02
       CONSTANT HEAD =          55.2739         CONSTANT HEAD =           3.2534
       RIVER LEAKAGE =          61.3046         RIVER LEAKAGE =           4.0782
            RECHARGE =          68.0000              RECHARGE =           0.0000

           TOTAL OUT =         333.0064             TOTAL OUT =           7.3466

            IN - OUT =       9.1553E-05              IN - OUT =       1.4305E-05

 PERCENT DISCREPANCY =           0.00     PERCENT DISCREPANCY =           0.00






         TIME SUMMARY AT END OF TIME STEP    1 IN STRESS PERIOD   17
                    SECONDS     MINUTES      HOURS       DAYS        YEARS
                    -----------------------------------------------------------
   TIME STEP LENGTH  86400.      1440.0      24.000      1.0000     2.73785E-03
 STRESS PERIOD TIME  86400.      1440.0      24.000      1.0000     2.73785E-03
         TOTAL TIME 1.46880E+06  24480.      408.00      17.000     4.65435E-02
1
1
                            STRESS PERIOD NO.   18, LENGTH =   1.000000    
                            -----------------------------------------------

                              NUMBER OF TIME STEPS =     1

                               MULTIPLIER FOR DELT =     1.000

                            INITIAL TIME STEP SIZE =   1.000000    

 REUSING NON-PARAMETER RIVER REACHES FROM LAST STRESS PERIOD

      2 RIVER REACHES

                 RECHARGE =  2.000000E-04
 
 SOLVING FOR HEAD 

 OUTPUT CONTROL FOR STRESS PERIOD   18   TIME STEP    1
    SAVE HEAD FOR ALL LAYERS

 HEAD WILL BE SAVED ON UNIT   51 AT END OF TIME STEP    1, STRESS PERIOD   18
1
  VOLUMETRIC BUDGET FOR ENTIRE MODEL AT END OF TIME STEP    1, STRESS PERIOD  18
  ------------------------------------------------------------------------------

     CUMULATIVE VOLUMES      L**3       RATES FOR THIS TIME STEP      L**3/T
     ------------------                 ------------------------

           IN:                                      IN:
           ---                                      ---
             STORAGE =         133.2069               STORAGE =           5.2004
       CONSTANT HEAD =           0.0000         CONSTANT HEAD =           0.0000
       RIVER LEAKAGE =           0.0000         RIVER LEAKAGE =           0.0000
            RECHARGE =         207.0000              RECHARGE =           2.0000

            TOTAL IN =         340.2068              TOTAL IN =           7.2004

          OUT:                                     OUT:
          ----                                     ----
             STORAGE =         148.4394               STORAGE =       1.1502E-02
       CONSTANT HEAD =          58.5273         CONSTANT HEAD =           3.2534
       RIVER LEAKAGE =          65.2399         RIVER LEAKAGE =           3.9353
            RECHARGE =          68.0000              RECHARGE =           0.0000

           TOTAL OUT =         340.2066             TOTAL OUT =           7.2002

            IN - OUT =       2.4414E-04              IN - OUT =       1.4877E-04

 PERCENT DISCREPANCY =           0.00     PERCENT DISCREPANCY =           0.00






         TIME SUMMARY AT END OF TIME STEP    1 IN STRESS PERIOD   18
                    SECONDS     MINUTES      HOURS       DAYS        YEARS
                    -----------------------------------------------------------
   TIME STEP LENGTH  86400.      1440.0      24.000      1.0000     2.73785E-03
 STRESS PERIOD TIME  86400.      1440.0      24.000      1.0000     2.73785E-03
         TOTAL TIME 1.55520E+06  25920.      432.00      18.000     4.92813E-02
1
1
                            STRESS PERIOD NO.   19, LENGTH =   1.000000    
                            -----------------------------------------------

                              NUMBER OF TIME STEPS =     1

                               MULTIPLIER FOR DELT =     1.000

                            INITIAL TIME STEP SIZE =   1.000000    

 REUSING NON-PARAMETER RIVER REACHES FROM LAST STRESS PERIOD

      2 RIVER REACHES

                 RECHARGE = -5.750000E-04
 
 SOLVING FOR HEAD 

 OUTPUT CONTROL FOR STRESS PERIOD   19   TIME STEP    1
    SAVE HEAD FOR ALL LAYERS

 HEAD WILL BE SAVED ON UNIT   51 AT END OF TIME STEP    1, STRESS PERIOD   19
1
  VOLUMETRIC BUDGET FOR ENTIRE MODEL AT END OF TIME STEP    1, STRESS PERIOD  19
  ------------------------------------------------------------------------------

     CUMULATIVE VOLUMES      L**3       RATES FOR THIS TIME STEP      L**3/T
     ------------------                 ------------------------

           IN:                                      IN:
           ---                                      ---
             STORAGE =         145.7487               STORAGE =          12.5418
       CONSTANT HEAD =           0.0000         CONSTANT HEAD =           0.0000
       RIVER LEAKAGE =           0.0000         RIVER LEAKAGE =           0.0000
            RECHARGE =         207.0000              RECHARGE =           0.0000

            TOTAL IN =         352.7487              TOTAL IN =          12.5418

          OUT:                                     OUT:
          ----                                     ----
             STORAGE =         148.4432               STORAGE =       3.8137E-03
       CONSTANT HEAD =          61.7804         CONSTANT HEAD =           3.2531
       RIVER LEAKAGE =          68.7747         RIVER LEAKAGE =           3.5347
            RECHARGE =          73.7500              RECHARGE =           5.7500

           TOTAL OUT =         352.7483             TOTAL OUT =          12.5417

            IN - OUT =       3.9673E-04              IN - OUT =       1.4496E-04

 PERCENT DISCREPANCY =           0.00     PERCENT DISCREPANCY =           0.00






         TIME SUMMARY AT END OF TIME STEP    1 IN STRESS PERIOD   19
                    SECONDS     MINUTES      HOURS       DAYS        YEARS
                    -----------------------------------------------------------
   TIME STEP LENGTH  86400.      1440.0      24.000      1.0000     2.73785E-03
 STRESS PERIOD TIME  86400.      1440.0      24.000      1.0000     2.73785E-03
         TOTAL TIME 1.64160E+06  27360.      456.00      19.000     5.20192E-02
1
1
                            STRESS PERIOD NO.   20, LENGTH =   1.000000    
                            -----------------------------------------------

                              NUMBER OF TIME STEPS =     1

                               MULTIPLIER FOR DELT =     1.000

                            INITIAL TIME STEP SIZE =   1.000000    

 REUSING NON-PARAMETER RIVER REACHES FROM LAST STRESS PERIOD

      2 RIVER REACHES

                 RECHARGE = -1.100000E-03
 
 SOLVING FOR HEAD 

 OUTPUT CONTROL FOR STRESS PERIOD   20   TIME STEP    1
    SAVE HEAD FOR ALL LAYERS

 HEAD WILL BE SAVED ON UNIT   51 AT END OF TIME STEP    1, STRESS PERIOD   20
1
  VOLUMETRIC BUDGET FOR ENTIRE MODEL AT END OF TIME STEP    1, STRESS PERIOD  20
  ------------------------------------------------------------------------------

     CUMULATIVE VOLUMES      L**3       RATES FOR THIS TIME STEP      L**3/T
     ------------------                 ------------------------

           IN:                                      IN:
           ---                                      ---
             STORAGE =         163.0722               STORAGE =          17.3235
       CONSTANT HEAD =           0.0000         CONSTANT HEAD =           0.0000
       RIVER LEAKAGE =           0.0000         RIVER LEAKAGE =           0.0000
            RECHARGE =         207.0000              RECHARGE =           0.0000

            TOTAL IN =         370.0722              TOTAL IN =          17.3235

          OUT:                                     OUT:
          ----                                     ----
             STORAGE =         148.4432               STORAGE =           0.0000
       CONSTANT HEAD =          65.0329         CONSTANT HEAD =           3.2524
       RIVER LEAKAGE =          71.8456         RIVER LEAKAGE =           3.0710
            RECHARGE =          84.7500              RECHARGE =          11.0000

           TOTAL OUT =         370.0717             TOTAL OUT =          17.3234

            IN - OUT =       5.1880E-04              IN - OUT =       1.2779E-04

 PERCENT DISCREPANCY =           0.00     PERCENT DISCREPANCY =           0.00






         TIME SUMMARY AT END OF TIME STEP    1 IN STRESS PERIOD   20
                    SECONDS     MINUTES      HOURS       DAYS        YEARS
                    -----------------------------------------------------------
   TIME STEP LENGTH  86400.      1440.0      24.000      1.0000     2.73785E-03
 STRESS PERIOD TIME  86400.      1440.0      24.000      1.0000     2.73785E-03
         TOTAL TIME 1.72800E+06  28800.      480.00      20.000     5.47570E-02
1
1
                            STRESS PERIOD NO.   21, LENGTH =   1.000000    
                            -----------------------------------------------

                              NUMBER OF TIME STEPS =     1

                               MULTIPLIER FOR DELT =     1.000

                            INITIAL TIME STEP SIZE =   1.000000    

 REUSING NON-PARAMETER RIVER REACHES FROM LAST STRESS PERIOD

      2 RIVER REACHES

                 RECHARGE = -1.675000E-03
 
 SOLVING FOR HEAD 

 OUTPUT CONTROL FOR STRESS PERIOD   21   TIME STEP    1
    SAVE HEAD FOR ALL LAYERS

 HEAD WILL BE SAVED ON UNIT   51 AT END OF TIME STEP    1, STRESS PERIOD   21
1
  VOLUMETRIC BUDGET FOR ENTIRE MODEL AT END OF TIME STEP    1, STRESS PERIOD  21
  ------------------------------------------------------------------------------

     CUMULATIVE VOLUMES      L**3       RATES FOR THIS TIME STEP      L**3/T
     ------------------                 ------------------------

           IN:                                      IN:
           ---                                      ---
             STORAGE =         185.6014               STORAGE =          22.5291
       CONSTANT HEAD =           0.0000         CONSTANT HEAD =           0.0000
[...]
       RIVER LEAKAGE =        1719.4657         RIVER LEAKAGE =           5.8261
            RECHARGE =        2652.0000              RECHARGE =           0.0000

            TOTAL IN =        8955.6543              TOTAL IN =           8.5994

          OUT:                                     OUT:
          ----                                     ----
             STORAGE =        2688.1616               STORAGE =           0.5327
       CONSTANT HEAD =         720.5622         CONSTANT HEAD =           2.0667
       RIVER LEAKAGE =         213.6786         RIVER LEAKAGE =           0.0000
            RECHARGE =        5333.2500              RECHARGE =           6.0000

           TOTAL OUT =        8955.6523             TOTAL OUT =           8.5994

            IN - OUT =       1.9531E-03              IN - OUT =       4.6730E-05

 PERCENT DISCREPANCY =           0.00     PERCENT DISCREPANCY =           0.00






         TIME SUMMARY AT END OF TIME STEP    1 IN STRESS PERIOD  265
                    SECONDS     MINUTES      HOURS       DAYS        YEARS
                    -----------------------------------------------------------
   TIME STEP LENGTH  86400.      1440.0      24.000      1.0000     2.73785E-03
 STRESS PERIOD TIME  86400.      1440.0      24.000      1.0000     2.73785E-03
         TOTAL TIME 2.28960E+07 3.81600E+05  6360.0      265.00     0.72553    
1
1
                            STRESS PERIOD NO.  266, LENGTH =   1.000000    
                            -----------------------------------------------

                              NUMBER OF TIME STEPS =     1

                               MULTIPLIER FOR DELT =     1.000

                            INITIAL TIME STEP SIZE =   1.000000    

 REUSING NON-PARAMETER RIVER REACHES FROM LAST STRESS PERIOD

      2 RIVER REACHES

                 RECHARGE = -1.000000E-04
 
 SOLVING FOR HEAD 

 OUTPUT CONTROL FOR STRESS PERIOD  266   TIME STEP    1
    SAVE HEAD FOR ALL LAYERS

 HEAD WILL BE SAVED ON UNIT   51 AT END OF TIME STEP    1, STRESS PERIOD  266
1
  VOLUMETRIC BUDGET FOR ENTIRE MODEL AT END OF TIME STEP    1, STRESS PERIOD 266
  ------------------------------------------------------------------------------

     CUMULATIVE VOLUMES      L**3       RATES FOR THIS TIME STEP      L**3/T
     ------------------                 ------------------------

           IN:                                      IN:
           ---                                      ---
             STORAGE =        4584.7520               STORAGE =           0.5630
       CONSTANT HEAD =           0.0000         CONSTANT HEAD =           0.0000
       RIVER LEAKAGE =        1725.2627         RIVER LEAKAGE =           5.7970
            RECHARGE =        2652.0000              RECHARGE =           0.0000

            TOTAL IN =        8962.0146              TOTAL IN =           6.3600

          OUT:                                     OUT:
          ----                                     ----
             STORAGE =        2691.4546               STORAGE =           3.2929
       CONSTANT HEAD =         722.6293         CONSTANT HEAD =           2.0671
       RIVER LEAKAGE =         213.6786         RIVER LEAKAGE =           0.0000
            RECHARGE =        5334.2500              RECHARGE =           1.0000

           TOTAL OUT =        8962.0127             TOTAL OUT =           6.3600

            IN - OUT =       1.9531E-03              IN - OUT =      -4.3869E-05

 PERCENT DISCREPANCY =           0.00     PERCENT DISCREPANCY =          -0.00






         TIME SUMMARY AT END OF TIME STEP    1 IN STRESS PERIOD  266
                    SECONDS     MINUTES      HOURS       DAYS        YEARS
                    -----------------------------------------------------------
   TIME STEP LENGTH  86400.      1440.0      24.000      1.0000     2.73785E-03
 STRESS PERIOD TIME  86400.      1440.0      24.000      1.0000     2.73785E-03
         TOTAL TIME 2.29824E+07 3.83040E+05  6384.0      266.00     0.72827    
1
1
                            STRESS PERIOD NO.  267, LENGTH =   1.000000    
                            -----------------------------------------------

                              NUMBER OF TIME STEPS =     1

                               MULTIPLIER FOR DELT =     1.000

                            INITIAL TIME STEP SIZE =   1.000000    

 REUSING NON-PARAMETER RIVER REACHES FROM LAST STRESS PERIOD

      2 RIVER REACHES

                 RECHARGE = -7.500000E-05
 
 SOLVING FOR HEAD 

 OUTPUT CONTROL FOR STRESS PERIOD  267   TIME STEP    1
    SAVE HEAD FOR ALL LAYERS

 HEAD WILL BE SAVED ON UNIT   51 AT END OF TIME STEP    1, STRESS PERIOD  267
1
  VOLUMETRIC BUDGET FOR ENTIRE MODEL AT END OF TIME STEP    1, STRESS PERIOD 267
  ------------------------------------------------------------------------------

     CUMULATIVE VOLUMES      L**3       RATES FOR THIS TIME STEP      L**3/T
     ------------------                 ------------------------

           IN:                                      IN:
           ---                                      ---
             STORAGE =        4585.1719               STORAGE =           0.4198
       CONSTANT HEAD =           0.0000         CONSTANT HEAD =           0.0000
       RIVER LEAKAGE =        1731.0670         RIVER LEAKAGE =           5.8043
            RECHARGE =        2652.0000              RECHARGE =           0.0000

            TOTAL IN =        8968.2383              TOTAL IN =           6.2241

          OUT:                                     OUT:
          ----                                     ----
             STORAGE =        2694.8611               STORAGE =           3.4065
       CONSTANT HEAD =         724.6968         CONSTANT HEAD =           2.0675
       RIVER LEAKAGE =         213.6786         RIVER LEAKAGE =           0.0000
            RECHARGE =        5335.0000              RECHARGE =           0.7500

           TOTAL OUT =        8968.2363             TOTAL OUT =           6.2240

            IN - OUT =       1.9531E-03              IN - OUT =       1.2207E-04

 PERCENT DISCREPANCY =           0.00     PERCENT DISCREPANCY =           0.00






         TIME SUMMARY AT END OF TIME STEP    1 IN STRESS PERIOD  267
                    SECONDS     MINUTES      HOURS       DAYS        YEARS
                    -----------------------------------------------------------
   TIME STEP LENGTH  86400.      1440.0      24.000      1.0000     2.73785E-03
 STRESS PERIOD TIME  86400.      1440.0      24.000      1.0000     2.73785E-03
         TOTAL TIME 2.30688E+07 3.84480E+05  6408.0      267.00     0.73101    
1
1
                            STRESS PERIOD NO.  268, LENGTH =   1.000000    
                            -----------------------------------------------

                              NUMBER OF TIME STEPS =     1

                               MULTIPLIER FOR DELT =     1.000

                            INITIAL TIME STEP SIZE =   1.000000    

 REUSING NON-PARAMETER RIVER REACHES FROM LAST STRESS PERIOD

      2 RIVER REACHES

                 RECHARGE = -2.000000E-04
 
 SOLVING FOR HEAD 

 OUTPUT CONTROL FOR STRESS PERIOD  268   TIME STEP    1
    SAVE HEAD FOR ALL LAYERS

 HEAD WILL BE SAVED ON UNIT   51 AT END OF TIME STEP    1, STRESS PERIOD  268
1
  VOLUMETRIC BUDGET FOR ENTIRE MODEL AT END OF TIME STEP    1, STRESS PERIOD 268
  ------------------------------------------------------------------------------

     CUMULATIVE VOLUMES      L**3       RATES FOR THIS TIME STEP      L**3/T
     ------------------                 ------------------------

           IN:                                      IN:
           ---                                      ---
             STORAGE =        4585.9243               STORAGE =           0.7527
       CONSTANT HEAD =           0.0000         CONSTANT HEAD =           0.0000
       RIVER LEAKAGE =        1736.9335         RIVER LEAKAGE =           5.8665
            RECHARGE =        2652.0000              RECHARGE =           0.0000

            TOTAL IN =        8974.8574              TOTAL IN =           6.6191

          OUT:                                     OUT:
          ----                                     ----
             STORAGE =        2697.4121               STORAGE =           2.5511
       CONSTANT HEAD =         726.7647         CONSTANT HEAD =           2.0679
       RIVER LEAKAGE =         213.6786         RIVER LEAKAGE =           0.0000
            RECHARGE =        5337.0000              RECHARGE =           2.0000

           TOTAL OUT =        8974.8555             TOTAL OUT =           6.6190

            IN - OUT =       1.9531E-03              IN - OUT =       6.9618E-05

 PERCENT DISCREPANCY =           0.00     PERCENT DISCREPANCY =           0.00






         TIME SUMMARY AT END OF TIME STEP    1 IN STRESS PERIOD  268
                    SECONDS     MINUTES      HOURS       DAYS        YEARS
                    -----------------------------------------------------------
   TIME STEP LENGTH  86400.      1440.0      24.000      1.0000     2.73785E-03
 STRESS PERIOD TIME  86400.      1440.0      24.000      1.0000     2.73785E-03
         TOTAL TIME 2.31552E+07 3.85920E+05  6432.0      268.00     0.73374    
1
1
                            STRESS PERIOD NO.  269, LENGTH =   1.000000    
                            -----------------------------------------------

                              NUMBER OF TIME STEPS =     1

                               MULTIPLIER FOR DELT =     1.000

                            INITIAL TIME STEP SIZE =   1.000000    

 REUSING NON-PARAMETER RIVER REACHES FROM LAST STRESS PERIOD

      2 RIVER REACHES

                 RECHARGE = -2.000000E-04
 
 SOLVING FOR HEAD 

 OUTPUT CONTROL FOR STRESS PERIOD  269   TIME STEP    1
    SAVE HEAD FOR ALL LAYERS

 HEAD WILL BE SAVED ON UNIT   51 AT END OF TIME STEP    1, STRESS PERIOD  269
1
  VOLUMETRIC BUDGET FOR ENTIRE MODEL AT END OF TIME STEP    1, STRESS PERIOD 269
  ------------------------------------------------------------------------------

     CUMULATIVE VOLUMES      L**3       RATES FOR THIS TIME STEP      L**3/T
     ------------------                 ------------------------

           IN:                                      IN:
           ---                                      ---
             STORAGE =        4586.5889               STORAGE =           0.6648
       CONSTANT HEAD =           0.0000         CONSTANT HEAD =           0.0000
       RIVER LEAKAGE =        1742.8474         RIVER LEAKAGE =           5.9139
            RECHARGE =        2652.0000              RECHARGE =           0.0000

            TOTAL IN =        8981.4365              TOTAL IN =           6.5787

          OUT:                                     OUT:
          ----                                     ----
             STORAGE =        2699.9224               STORAGE =           2.5102
       CONSTANT HEAD =         728.8330         CONSTANT HEAD =           2.0683
       RIVER LEAKAGE =         213.6786         RIVER LEAKAGE =           0.0000
            RECHARGE =        5339.0000              RECHARGE =           2.0000

           TOTAL OUT =        8981.4336             TOTAL OUT =           6.5786

            IN - OUT =       2.9297E-03              IN - OUT =       9.2983E-05

 PERCENT DISCREPANCY =           0.00     PERCENT DISCREPANCY =           0.00






         TIME SUMMARY AT END OF TIME STEP    1 IN STRESS PERIOD  269
                    SECONDS     MINUTES      HOURS       DAYS        YEARS
                    -----------------------------------------------------------
   TIME STEP LENGTH  86400.      1440.0      24.000      1.0000     2.73785E-03
 STRESS PERIOD TIME  86400.      1440.0      24.000      1.0000     2.73785E-03
         TOTAL TIME 2.32416E+07 3.87360E+05  6456.0      269.00     0.73648    
1
1
                            STRESS PERIOD NO.  270, LENGTH =   1.000000    
                            -----------------------------------------------

                              NUMBER OF TIME STEPS =     1

                               MULTIPLIER FOR DELT =     1.000

                            INITIAL TIME STEP SIZE =   1.000000    

 REUSING NON-PARAMETER RIVER REACHES FROM LAST STRESS PERIOD

      2 RIVER REACHES

                 RECHARGE = -3.750000E-04
 
 SOLVING FOR HEAD 

 OUTPUT CONTROL FOR STRESS PERIOD  270   TIME STEP    1
    SAVE HEAD FOR ALL LAYERS

 HEAD WILL BE SAVED ON UNIT   51 AT END OF TIME STEP    1, STRESS PERIOD  270
1
  VOLUMETRIC BUDGET FOR ENTIRE MODEL AT END OF TIME STEP    1, STRESS PERIOD 270
  ------------------------------------------------------------------------------

     CUMULATIVE VOLUMES      L**3       RATES FOR THIS TIME STEP      L**3/T
     ------------------                 ------------------------

           IN:                                      IN:
           ---                                      ---
             STORAGE =        4587.8560               STORAGE =           1.2672
       CONSTANT HEAD =           0.0000         CONSTANT HEAD =           0.0000
       RIVER LEAKAGE =        1748.8618         RIVER LEAKAGE =           6.0143
            RECHARGE =        2652.0000              RECHARGE =           0.0000

            TOTAL IN =        8988.7178              TOTAL IN =           7.2816

          OUT:                                     OUT:
          ----                                     ----
             STORAGE =        2701.3853               STORAGE =           1.4629
       CONSTANT HEAD =         730.9017         CONSTANT HEAD =           2.0687
       RIVER LEAKAGE =         213.6786         RIVER LEAKAGE =           0.0000
            RECHARGE =        5342.7500              RECHARGE =           3.7500

           TOTAL OUT =        8988.7158             TOTAL OUT =           7.2815

            IN - OUT =       1.9531E-03              IN - OUT =       3.4809E-05

 PERCENT DISCREPANCY =           0.00     PERCENT DISCREPANCY =           0.00






         TIME SUMMARY AT END OF TIME STEP    1 IN STRESS PERIOD  270
                    SECONDS     MINUTES      HOURS       DAYS        YEARS
                    -----------------------------------------------------------
   TIME STEP LENGTH  86400.      1440.0      24.000      1.0000     2.73785E-03
 STRESS PERIOD TIME  86400.      1440.0      24.000      1.0000     2.73785E-03
         TOTAL TIME 2.33280E+07 3.88800E+05  6480.0      270.00     0.73922    
1
1
                            STRESS PERIOD NO.  271, LENGTH =   1.000000    
                            -----------------------------------------------

                              NUMBER OF TIME STEPS =     1

                               MULTIPLIER FOR DELT =     1.000

                            INITIAL TIME STEP SIZE =   1.000000    

 REUSING NON-PARAMETER RIVER REACHES FROM LAST STRESS PERIOD

      2 RIVER REACHES

                 RECHARGE = -1.000000E-04
 
 SOLVING FOR HEAD 

 OUTPUT CONTROL FOR STRESS PERIOD  271   TIME STEP    1
    SAVE HEAD FOR ALL LAYERS

 HEAD WILL BE SAVED ON UNIT   51 AT END OF TIME STEP    1, STRESS PERIOD  271
1
  VOLUMETRIC BUDGET FOR ENTIRE MODEL AT END OF TIME STEP    1, STRESS PERIOD 271
  ------------------------------------------------------------------------------

     CUMULATIVE VOLUMES      L**3       RATES FOR THIS TIME STEP      L**3/T
     ------------------                 ------------------------

           IN:                                      IN:
           ---                                      ---
             STORAGE =        4588.0327               STORAGE =           0.1767
       CONSTANT HEAD =           0.0000         CONSTANT HEAD =           0.0000
       RIVER LEAKAGE =        1754.8534         RIVER LEAKAGE =           5.9916
            RECHARGE =        2652.0000              RECHARGE =           0.0000

            TOTAL IN =        8994.8867              TOTAL IN =           6.1683

          OUT:                                     OUT:
          ----                                     ----
             STORAGE =        2704.4846               STORAGE =           3.0993
       CONSTANT HEAD =         732.9708         CONSTANT HEAD =           2.0691
       RIVER LEAKAGE =         213.6786         RIVER LEAKAGE =           0.0000
            RECHARGE =        5343.7500              RECHARGE =           1.0000

           TOTAL OUT =        8994.8838             TOTAL OUT =           6.1684

            IN - OUT =       2.9297E-03              IN - OUT =      -7.2956E-05

 PERCENT DISCREPANCY =           0.00     PERCENT DISCREPANCY =          -0.00






         TIME SUMMARY AT END OF TIME STEP    1 IN STRESS PERIOD  271
                    SECONDS     MINUTES      HOURS       DAYS        YEARS
                    -----------------------------------------------------------
   TIME STEP LENGTH  86400.      1440.0      24.000      1.0000     2.73785E-03
 STRESS PERIOD TIME  86400.      1440.0      24.000      1.0000     2.73785E-03
         TOTAL TIME 2.34144E+07 3.90240E+05  6504.0      271.00     0.74196    
1
1
                            STRESS PERIOD NO.  272, LENGTH =   1.000000    
                            -----------------------------------------------

                              NUMBER OF TIME STEPS =     1

                               MULTIPLIER FOR DELT =     1.000

                            INITIAL TIME STEP SIZE =   1.000000    

 REUSING NON-PARAMETER RIVER REACHES FROM LAST STRESS PERIOD

      2 RIVER REACHES

                 RECHARGE = -1.000000E-04
 
 SOLVING FOR HEAD 

 OUTPUT CONTROL FOR STRESS PERIOD  272   TIME STEP    1
    SAVE HEAD FOR ALL LAYERS

 HEAD WILL BE SAVED ON UNIT   51 AT END OF TIME STEP    1, STRESS PERIOD  272
1
  VOLUMETRIC BUDGET FOR ENTIRE MODEL AT END OF TIME STEP    1, STRESS PERIOD 272
  ------------------------------------------------------------------------------

     CUMULATIVE VOLUMES      L**3       RATES FOR THIS TIME STEP      L**3/T
     ------------------                 ------------------------

           IN:                                      IN:
           ---                                      ---
             STORAGE =        4588.1748               STORAGE =           0.1420
       CONSTANT HEAD =           0.0000         CONSTANT HEAD =           0.0000
       RIVER LEAKAGE =        1760.8453         RIVER LEAKAGE =           5.9920
            RECHARGE =        2652.0000              RECHARGE =           0.0000

            TOTAL IN =        9001.0195              TOTAL IN =           6.1339

          OUT:                                     OUT:
          ----                                     ----
             STORAGE =        2707.5491               STORAGE =           3.0645
       CONSTANT HEAD =         735.0403         CONSTANT HEAD =           2.0695
       RIVER LEAKAGE =         213.6786         RIVER LEAKAGE =           0.0000
            RECHARGE =        5344.7500              RECHARGE =           1.0000

           TOTAL OUT =        9001.0176             TOTAL OUT =           6.1340

            IN - OUT =       1.9531E-03              IN - OUT =      -9.3460E-05

 PERCENT DISCREPANCY =           0.00     PERCENT DISCREPANCY =          -0.00






         TIME SUMMARY AT END OF TIME STEP    1 IN STRESS PERIOD  272
                    SECONDS     MINUTES      HOURS       DAYS        YEARS
                    -----------------------------------------------------------
   TIME STEP LENGTH  86400.      1440.0      24.000      1.0000     2.73785E-03
 STRESS PERIOD TIME  86400.      1440.0      24.000      1.0000     2.73785E-03
         TOTAL TIME 2.35008E+07 3.91680E+05  6528.0      272.00     0.74470    
1

 Run end date and time (yyyy/mm/dd hh:mm:ss): 2018/11/28 11:56:41
 Elapsed run time:  0.569 Seconds

