                                  MODFLOW-2005     
      U.S. GEOLOGICAL SURVEY MODULAR FINITE-DIFFERENCE GROUND-WATER FLOW MODEL
                            VERSION 1.12.00 2/3/2017

 LIST FILE: average_1960-2018.list
                         UNIT    2

 OPENING average_1960-2018.dis
 FILE TYPE:DIS   UNIT   11   STATUS:OLD    
 FORMAT:FORMATTED              ACCESS:SEQUENTIAL          

 OPENING average_1960-2018.bas
 FILE TYPE:BAS6   UNIT   13   STATUS:OLD    
 FORMAT:FORMATTED              ACCESS:SEQUENTIAL          

 OPENING average_1960-2018.bcf
 FILE TYPE:BCF6   UNIT   15   STATUS:OLD    
 FORMAT:FORMATTED              ACCESS:SEQUENTIAL          

 OPENING average_1960-2018.oc
 FILE TYPE:OC   UNIT   14   STATUS:OLD    
 FORMAT:FORMATTED              ACCESS:SEQUENTIAL          

 OPENING average_1960-2018.pcg
 FILE TYPE:PCG   UNIT   27   STATUS:OLD    
 FORMAT:FORMATTED              ACCESS:SEQUENTIAL          

 OPENING average_1960-2018.rch
 FILE TYPE:RCH   UNIT   19   STATUS:OLD    
 FORMAT:FORMATTED              ACCESS:SEQUENTIAL          

 OPENING average_1960-2018.riv
 FILE TYPE:RIV   UNIT   18   STATUS:OLD    
 FORMAT:FORMATTED              ACCESS:SEQUENTIAL          

 OPENING average_1960-2018.hds
 FILE TYPE:DATA(BINARY)   UNIT   51   STATUS:REPLACE
 FORMAT:BINARY                 ACCESS:SEQUENTIAL          

 BAS -- BASIC PACKAGE, VERSION 7, 5/2/2005 INPUT READ FROM UNIT   13
 
 MODFLOW was compiled using mixed precision
 Precision of REAL variables:           6
 Precision of DOUBLE PRECISION variables:          15

 DISCRETIZATION INPUT DATA READ FROM UNIT   11
 # DIS package for  MODFLOW-2005, generated by Flopy.
    2 LAYERS         1 ROWS      1000 COLUMNS
  272 STRESS PERIOD(S) IN SIMULATION
 MODEL TIME UNIT IS DAYS
 MODEL LENGTH UNIT IS METERS
  Confining bed flag for each layer:
   0   0

                     DELR =   1.00000    

                     DELC =   10.0000    

 TOP ELEVATION OF LAYER 1 =   5.00000    

   MODEL LAYER BOTTOM EL. =  -5.00000     FOR LAYER   1

   MODEL LAYER BOTTOM EL. =  -25.0000     FOR LAYER   2


 STRESS PERIOD     LENGTH       TIME STEPS     MULTIPLIER FOR DELT    SS FLAG
 ----------------------------------------------------------------------------
        1         1.000000          1                    1.000         SS
        2         1.000000          1                    1.000         TR
        3         1.000000          1                    1.000         TR
        4         1.000000          1                    1.000         TR
        5         1.000000          1                    1.000         TR
        6         1.000000          1                    1.000         TR
        7         1.000000          1                    1.000         TR
        8         1.000000          1                    1.000         TR
        9         1.000000          1                    1.000         TR
       10         1.000000          1                    1.000         TR
       11         1.000000          1                    1.000         TR
       12         1.000000          1                    1.000         TR
       13         1.000000          1                    1.000         TR
       14         1.000000          1                    1.000         TR
       15         1.000000          1                    1.000         TR
       16         1.000000          1                    1.000         TR
       17         1.000000          1                    1.000         TR
       18         1.000000          1                    1.000         TR
       19         1.000000          1                    1.000         TR
       20         1.000000          1                    1.000         TR
       21         1.000000          1                    1.000         TR
       22         1.000000          1                    1.000         TR
       23         1.000000          1                    1.000         TR
       24         1.000000          1                    1.000         TR
       25         1.000000          1                    1.000         TR
       26         1.000000          1                    1.000         TR
       27         1.000000          1                    1.000         TR
       28         1.000000          1                    1.000         TR
       29         1.000000          1                    1.000         TR
       30         1.000000          1                    1.000         TR
       31         1.000000          1                    1.000         TR
       32         1.000000          1                    1.000         TR
       33         1.000000          1                    1.000         TR
       34         1.000000          1                    1.000         TR
       35         1.000000          1                    1.000         TR
       36         1.000000          1                    1.000         TR
       37         1.000000          1                    1.000         TR
       38         1.000000          1                    1.000         TR
       39         1.000000          1                    1.000         TR
       40         1.000000          1                    1.000         TR
       41         1.000000          1                    1.000         TR
       42         1.000000          1                    1.000         TR
       43         1.000000          1                    1.000         TR
       44         1.000000          1                    1.000         TR
       45         1.000000          1                    1.000         TR
       46         1.000000          1                    1.000         TR
       47         1.000000          1                    1.000         TR
       48         1.000000          1                    1.000         TR
       49         1.000000          1                    1.000         TR
       50         1.000000          1                    1.000         TR
       51         1.000000          1                    1.000         TR
       52         1.000000          1                    1.000         TR
       53         1.000000          1                    1.000         TR
       54         1.000000          1                    1.000         TR
       55         1.000000          1                    1.000         TR
       56         1.000000          1                    1.000         TR
       57         1.000000          1                    1.000         TR
       58         1.000000          1                    1.000         TR
       59         1.000000          1                    1.000         TR
       60         1.000000          1                    1.000         TR
       61         1.000000          1                    1.000         TR
       62         1.000000          1                    1.000         TR
       63         1.000000          1                    1.000         TR
       64         1.000000          1                    1.000         TR
       65         1.000000          1                    1.000         TR
       66         1.000000          1                    1.000         TR
       67         1.000000          1                    1.000         TR
       68         1.000000          1                    1.000         TR
       69         1.000000          1                    1.000         TR
       70         1.000000          1                    1.000         TR
       71         1.000000          1                    1.000         TR
       72         1.000000          1                    1.000         TR
       73         1.000000          1                    1.000         TR
       74         1.000000          1                    1.000         TR
       75         1.000000          1                    1.000         TR
       76         1.000000          1                    1.000         TR
       77         1.000000          1                    1.000         TR
       78         1.000000          1                    1.000         TR
       79         1.000000          1                    1.000         TR
       80         1.000000          1                    1.000         TR
       81         1.000000          1                    1.000         TR
       82         1.000000          1                    1.000         TR
       83         1.000000          1                    1.000         TR
       84         1.000000          1                    1.000         TR
       85         1.000000          1                    1.000         TR
       86         1.000000          1                    1.000         TR
       87         1.000000          1                    1.000         TR
       88         1.000000          1                    1.000         TR
       89         1.000000          1                    1.000         TR
       90         1.000000          1                    1.000         TR
       91         1.000000          1                    1.000         TR
       92         1.000000          1                    1.000         TR
       93         1.000000          1                    1.000         TR
       94         1.000000          1                    1.000         TR
       95         1.000000          1                    1.000         TR
       96         1.000000          1                    1.000         TR
       97         1.000000          1                    1.000         TR
       98         1.000000          1                    1.000         TR
       99         1.000000          1                    1.000         TR
      100         1.000000          1                    1.000         TR
      101         1.000000          1                    1.000         TR
      102         1.000000          1                    1.000         TR
      103         1.000000          1                    1.000         TR
      104         1.000000          1                    1.000         TR
      105         1.000000          1                    1.000         TR
      106         1.000000          1                    1.000         TR
      107         1.000000          1                    1.000         TR
      108         1.000000          1                    1.000         TR
      109         1.000000          1                    1.000         TR
      110         1.000000          1                    1.000         TR
      111         1.000000          1                    1.000         TR
      112         1.000000          1                    1.000         TR
      113         1.000000          1                    1.000         TR
      114         1.000000          1                    1.000         TR
      115         1.000000          1                    1.000         TR
      116         1.000000          1                    1.000         TR
      117         1.000000          1                    1.000         TR
      118         1.000000          1                    1.000         TR
      119         1.000000          1                    1.000         TR
      120         1.000000          1                    1.000         TR
      121         1.000000          1                    1.000         TR
      122         1.000000          1                    1.000         TR
      123         1.000000          1                    1.000         TR
      124         1.000000          1                    1.000         TR
      125         1.000000          1                    1.000         TR
      126         1.000000          1                    1.000         TR
      127         1.000000          1                    1.000         TR
      128         1.000000          1                    1.000         TR
      129         1.000000          1                    1.000         TR
      130         1.000000          1                    1.000         TR
      131         1.000000          1                    1.000         TR
      132         1.000000          1                    1.000         TR
      133         1.000000          1                    1.000         TR
      134         1.000000          1                    1.000         TR
      135         1.000000          1                    1.000         TR
      136         1.000000          1                    1.000         TR
      137         1.000000          1                    1.000         TR
      138         1.000000          1                    1.000         TR
      139         1.000000          1                    1.000         TR
      140         1.000000          1                    1.000         TR
      141         1.000000          1                    1.000         TR
      142         1.000000          1                    1.000         TR
      143         1.000000          1                    1.000         TR
      144         1.000000          1                    1.000         TR
      145         1.000000          1                    1.000         TR
      146         1.000000          1                    1.000         TR
      147         1.000000          1                    1.000         TR
      148         1.000000          1                    1.000         TR
      149         1.000000          1                    1.000         TR
      150         1.000000          1                    1.000         TR
      151         1.000000          1                    1.000         TR
      152         1.000000          1                    1.000         TR
      153         1.000000          1                    1.000         TR
      154         1.000000          1                    1.000         TR
      155         1.000000          1                    1.000         TR
      156         1.000000          1                    1.000         TR
      157         1.000000          1                    1.000         TR
      158         1.000000          1                    1.000         TR
      159         1.000000          1                    1.000         TR
      160         1.000000          1                    1.000         TR
      161         1.000000          1                    1.000         TR
      162         1.000000          1                    1.000         TR
      163         1.000000          1                    1.000         TR
      164         1.000000          1                    1.000         TR
      165         1.000000          1                    1.000         TR
      166         1.000000          1                    1.000         TR
      167         1.000000          1                    1.000         TR
      168         1.000000          1                    1.000         TR
      169         1.000000          1                    1.000         TR
      170         1.000000          1                    1.000         TR
      171         1.000000          1                    1.000         TR
      172         1.000000          1                    1.000         TR
      173         1.000000          1                    1.000         TR
      174         1.000000          1                    1.000         TR
      175         1.000000          1                    1.000         TR
      176         1.000000          1                    1.000         TR
      177         1.000000          1                    1.000         TR
      178         1.000000          1                    1.000         TR
      179         1.000000          1                    1.000         TR
      180         1.000000          1                    1.000         TR
      181         1.000000          1                    1.000         TR
      182         1.000000          1                    1.000         TR
      183         1.000000          1                    1.000         TR
      184         1.000000          1                    1.000         TR
      185         1.000000          1                    1.000         TR
      186         1.000000          1                    1.000         TR
      187         1.000000          1                    1.000         TR
      188         1.000000          1                    1.000         TR
      189         1.000000          1                    1.000         TR
      190         1.000000          1                    1.000         TR
      191         1.000000          1                    1.000         TR
      192         1.000000          1                    1.000         TR
      193         1.000000          1                    1.000         TR
      194         1.000000          1                    1.000         TR
      195         1.000000          1                    1.000         TR
      196         1.000000          1                    1.000         TR
      197         1.000000          1                    1.000         TR
      198         1.000000          1                    1.000         TR
      199         1.000000          1                    1.000         TR
      200         1.000000          1                    1.000         TR
      201         1.000000          1                    1.000         TR
      202         1.000000          1                    1.000         TR
      203         1.000000          1                    1.000         TR
      204         1.000000          1                    1.000         TR
      205         1.000000          1                    1.000         TR
      206         1.000000          1                    1.000         TR
      207         1.000000          1                    1.000         TR
      208         1.000000          1                    1.000         TR
      209         1.000000          1                    1.000         TR
      210         1.000000          1                    1.000         TR
      211         1.000000          1                    1.000         TR
      212         1.000000          1                    1.000         TR
      213         1.000000          1                    1.000         TR
      214         1.000000          1                    1.000         TR
      215         1.000000          1                    1.000         TR
      216         1.000000          1                    1.000         TR
      217         1.000000          1                    1.000         TR
      218         1.000000          1                    1.000         TR
      219         1.000000          1                    1.000         TR
      220         1.000000          1                    1.000         TR
      221         1.000000          1                    1.000         TR
      222         1.000000          1                    1.000         TR
      223         1.000000          1                    1.000         TR
      224         1.000000          1                    1.000         TR
      225         1.000000          1                    1.000         TR
      226         1.000000          1                    1.000         TR
      227         1.000000          1                    1.000         TR
      228         1.000000          1                    1.000         TR
      229         1.000000          1                    1.000         TR
      230         1.000000          1                    1.000         TR
      231         1.000000          1                    1.000         TR
      232         1.000000          1                    1.000         TR
      233         1.000000          1                    1.000         TR
      234         1.000000          1                    1.000         TR
      235         1.000000          1                    1.000         TR
      236         1.000000          1                    1.000         TR
      237         1.000000          1                    1.000         TR
      238         1.000000          1                    1.000         TR
      239         1.000000          1                    1.000         TR
      240         1.000000          1                    1.000         TR
      241         1.000000          1                    1.000         TR
      242         1.000000          1                    1.000         TR
      243         1.000000          1                    1.000         TR
      244         1.000000          1                    1.000         TR
      245         1.000000          1                    1.000         TR
      246         1.000000          1                    1.000         TR
      247         1.000000          1                    1.000         TR
      248         1.000000          1                    1.000         TR
      249         1.000000          1                    1.000         TR
      250         1.000000          1                    1.000         TR
      251         1.000000          1                    1.000         TR
      252         1.000000          1                    1.000         TR
      253         1.000000          1                    1.000         TR
      254         1.000000          1                    1.000         TR
      255         1.000000          1                    1.000         TR
      256         1.000000          1                    1.000         TR
      257         1.000000          1                    1.000         TR
      258         1.000000          1                    1.000         TR
      259         1.000000          1                    1.000         TR
      260         1.000000          1                    1.000         TR
      261         1.000000          1                    1.000         TR
      262         1.000000          1                    1.000         TR
      263         1.000000          1                    1.000         TR
      264         1.000000          1                    1.000         TR
      265         1.000000          1                    1.000         TR
      266         1.000000          1                    1.000         TR
      267         1.000000          1                    1.000         TR
      268         1.000000          1                    1.000         TR
      269         1.000000          1                    1.000         TR
      270         1.000000          1                    1.000         TR
      271         1.000000          1                    1.000         TR
      272         1.000000          1                    1.000         TR

 COMBINED STEADY-STATE AND TRANSIENT SIMULATION



 
 # BAS6 package for  MODFLOW-2005, generated by Flopy.                           
 THE FREE FORMAT OPTION HAS BEEN SELECTED



                     BOUNDARY ARRAY FOR LAYER   1
 READING ON UNIT   13 WITH FORMAT: (1000I10)           



                     BOUNDARY ARRAY FOR LAYER   2
 READING ON UNIT   13 WITH FORMAT: (1000I10)           

 AQUIFER HEAD WILL BE SET TO  -999.99     AT ALL NO-FLOW NODES (IBOUND=0).

             INITIAL HEAD =   0.00000     FOR LAYER   1

             INITIAL HEAD =   0.00000     FOR LAYER   2
 # OC package for  MODFLOW-2005, generated by Flopy.

 OUTPUT CONTROL IS SPECIFIED ONLY AT TIME STEPS FOR WHICH OUTPUT IS DESIRED
 COMPACT CELL-BY-CELL BUDGET FILES WILL BE WRITTEN
 AUXILIARY DATA WILL BE SAVED IN CELL-BY-CELL BUDGET FILES
 HEAD PRINT FORMAT CODE IS   0    DRAWDOWN PRINT FORMAT CODE IS   0
 HEADS WILL BE SAVED ON UNIT   51    DRAWDOWNS WILL BE SAVED ON UNIT    0

 BCF -- BLOCK-CENTERED FLOW PACKAGE, VERSION 7, 5/2/2005
         INPUT READ FROM UNIT 15
 TRANSIENT SIMULATION
 HEAD AT CELLS THAT CONVERT TO DRY= -0.10000E+31
 WETTING CAPABILITY IS NOT ACTIVE
      LAYER  LAYER-TYPE CODE     INTERBLOCK T
      --------------------------------------------
         1            1          0 -- HARMONIC    
         2            3          0 -- HARMONIC    

 COLUMN TO ROW ANISOTROPY =   1.00000    

     PRIMARY STORAGE COEF =  0.150000     FOR LAYER   1

    HYD. COND. ALONG ROWS =   10.0000     FOR LAYER   1

 VERT HYD COND /THICKNESS =  1.000000E-04 FOR LAYER   1

     PRIMARY STORAGE COEF =  0.150000     FOR LAYER   2

    HYD. COND. ALONG ROWS =   10.0000     FOR LAYER   2

   SECONDARY STORAGE COEF =  0.150000     FOR LAYER   2

 RIV -- RIVER PACKAGE, VERSION 7, 5/2/2005 INPUT READ FROM UNIT   18
 # RIV package for  MODFLOW-2005, generated by Flopy.
 No named parameters
 MAXIMUM OF      2 ACTIVE RIVER REACHES AT ONE TIME


     0 River parameters

 RCH -- RECHARGE PACKAGE, VERSION 7, 5/2/2005 INPUT READ FROM UNIT   19
 # RCH package for  MODFLOW-2005, generated by Flopy.
 No named parameters
 OPTION 3 -- RECHARGE TO HIGHEST ACTIVE NODE IN EACH VERTICAL COLUMN


     0 Recharge parameters

 PCG -- CONJUGATE-GRADIENT SOLUTION PACKAGE, VERSION 7, 5/2/2005
 # PCG package for  MODFLOW-2005, generated by Flopy.
 MAXIMUM OF     50 CALLS OF SOLUTION ROUTINE
 MAXIMUM OF     30 INTERNAL ITERATIONS PER CALL TO SOLUTION ROUTINE
 MATRIX PRECONDITIONING TYPE :    1



                                    SOLUTION BY THE CONJUGATE-GRADIENT METHOD
                                   -------------------------------------------
                    MAXIMUM NUMBER OF CALLS TO PCG ROUTINE =       50
                        MAXIMUM ITERATIONS PER CALL TO PCG =       30
                               MATRIX PRECONDITIONING TYPE =        1
        RELAXATION FACTOR (ONLY USED WITH PRECOND. TYPE 1) =    0.10000E+01
 PARAMETER OF POLYNOMIAL PRECOND. = 2 (2) OR IS CALCULATED :        0
                         HEAD CHANGE CRITERION FOR CLOSURE =    0.10000E-04
                     RESIDUAL CHANGE CRITERION FOR CLOSURE =    0.10000E-04
            PCG HEAD AND RESIDUAL CHANGE PRINTOUT INTERVAL =      999
     PRINTING FROM SOLVER IS LIMITED(1) OR SUPPRESSED (>1) =        3
                            STEADY-STATE DAMPING PARAMETER =    0.10000E+01
                               TRANSIENT DAMPING PARAMETER =    0.10000E+01
1
                            STRESS PERIOD NO.    1, LENGTH =   1.000000    
                            -----------------------------------------------

                              NUMBER OF TIME STEPS =     1

                               MULTIPLIER FOR DELT =     1.000

                            INITIAL TIME STEP SIZE =   1.000000    

 REACH NO.  LAYER   ROW   COL     STAGE      CONDUCTANCE     BOTTOM EL.         
 -------------------------------------------------------------------------------
      1      1      1      1       3.000           100.0           2.000    
      2      1      1   1000       3.000           100.0           2.000    

      2 RIVER REACHES

                 RECHARGE =  7.000000E-04
 
 SOLVING FOR HEAD 

 OUTPUT CONTROL FOR STRESS PERIOD    1   TIME STEP    1
    SAVE HEAD FOR ALL LAYERS

 HEAD WILL BE SAVED ON UNIT   51 AT END OF TIME STEP    1, STRESS PERIOD    1
1
  VOLUMETRIC BUDGET FOR ENTIRE MODEL AT END OF TIME STEP    1, STRESS PERIOD   1
  ------------------------------------------------------------------------------

     CUMULATIVE VOLUMES      L**3       RATES FOR THIS TIME STEP      L**3/T
     ------------------                 ------------------------

           IN:                                      IN:
           ---                                      ---
             STORAGE =           0.0000               STORAGE =           0.0000
       CONSTANT HEAD =           0.0000         CONSTANT HEAD =           0.0000
       RIVER LEAKAGE =           0.0000         RIVER LEAKAGE =           0.0000
            RECHARGE =           7.0000              RECHARGE =           7.0000

            TOTAL IN =           7.0000              TOTAL IN =           7.0000

          OUT:                                     OUT:
          ----                                     ----
             STORAGE =           0.0000               STORAGE =           0.0000
       CONSTANT HEAD =           3.2546         CONSTANT HEAD =           3.2546
       RIVER LEAKAGE =           3.7454         RIVER LEAKAGE =           3.7454
            RECHARGE =           0.0000              RECHARGE =           0.0000

           TOTAL OUT =           7.0000             TOTAL OUT =           7.0000

            IN - OUT =       2.2888E-05              IN - OUT =       2.2888E-05

 PERCENT DISCREPANCY =           0.00     PERCENT DISCREPANCY =           0.00






         TIME SUMMARY AT END OF TIME STEP    1 IN STRESS PERIOD    1
                    SECONDS     MINUTES      HOURS       DAYS        YEARS
                    -----------------------------------------------------------
   TIME STEP LENGTH  86400.      1440.0      24.000      1.0000     2.73785E-03
 STRESS PERIOD TIME  86400.      1440.0      24.000      1.0000     2.73785E-03
         TOTAL TIME  86400.      1440.0      24.000      1.0000     2.73785E-03
1
1
                            STRESS PERIOD NO.    2, LENGTH =   1.000000    
                            -----------------------------------------------

                              NUMBER OF TIME STEPS =     1

                               MULTIPLIER FOR DELT =     1.000

                            INITIAL TIME STEP SIZE =   1.000000    

 REUSING NON-PARAMETER RIVER REACHES FROM LAST STRESS PERIOD

      2 RIVER REACHES

                 RECHARGE =  2.745763E-03
 
 SOLVING FOR HEAD 

 OUTPUT CONTROL FOR STRESS PERIOD    2   TIME STEP    1
    SAVE HEAD FOR ALL LAYERS

 HEAD WILL BE SAVED ON UNIT   51 AT END OF TIME STEP    1, STRESS PERIOD    2
1
  VOLUMETRIC BUDGET FOR ENTIRE MODEL AT END OF TIME STEP    1, STRESS PERIOD   2
  ------------------------------------------------------------------------------

     CUMULATIVE VOLUMES      L**3       RATES FOR THIS TIME STEP      L**3/T
     ------------------                 ------------------------

           IN:                                      IN:
           ---                                      ---
             STORAGE =           0.0000               STORAGE =           0.0000
       CONSTANT HEAD =           0.0000         CONSTANT HEAD =           0.0000
       RIVER LEAKAGE =           0.0000         RIVER LEAKAGE =           0.0000
            RECHARGE =          34.4576              RECHARGE =          27.4576

            TOTAL IN =          34.4576              TOTAL IN =          27.4576

          OUT:                                     OUT:
          ----                                     ----
             STORAGE =          19.7397               STORAGE =          19.7397
       CONSTANT HEAD =           6.5098         CONSTANT HEAD =           3.2553
       RIVER LEAKAGE =           8.2081         RIVER LEAKAGE =           4.4627
            RECHARGE =           0.0000              RECHARGE =           0.0000

           TOTAL OUT =          34.4577             TOTAL OUT =          27.4577

            IN - OUT =      -5.3406E-05              IN - OUT =      -7.4387E-05

 PERCENT DISCREPANCY =          -0.00     PERCENT DISCREPANCY =          -0.00






         TIME SUMMARY AT END OF TIME STEP    1 IN STRESS PERIOD    2
                    SECONDS     MINUTES      HOURS       DAYS        YEARS
                    -----------------------------------------------------------
   TIME STEP LENGTH  86400.      1440.0      24.000      1.0000     2.73785E-03
 STRESS PERIOD TIME  86400.      1440.0      24.000      1.0000     2.73785E-03
         TOTAL TIME 1.72800E+05  2880.0      48.000      2.0000     5.47570E-03
1
1
                            STRESS PERIOD NO.    3, LENGTH =   1.000000    
                            -----------------------------------------------

                              NUMBER OF TIME STEPS =     1

                               MULTIPLIER FOR DELT =     1.000

                            INITIAL TIME STEP SIZE =   1.000000    

 REUSING NON-PARAMETER RIVER REACHES FROM LAST STRESS PERIOD

      2 RIVER REACHES

                 RECHARGE =  2.711441E-03
 
 SOLVING FOR HEAD 

 OUTPUT CONTROL FOR STRESS PERIOD    3   TIME STEP    1
    SAVE HEAD FOR ALL LAYERS

 HEAD WILL BE SAVED ON UNIT   51 AT END OF TIME STEP    1, STRESS PERIOD    3
1
  VOLUMETRIC BUDGET FOR ENTIRE MODEL AT END OF TIME STEP    1, STRESS PERIOD   3
  ------------------------------------------------------------------------------

     CUMULATIVE VOLUMES      L**3       RATES FOR THIS TIME STEP      L**3/T
     ------------------                 ------------------------

           IN:                                      IN:
           ---                                      ---
             STORAGE =           0.0000               STORAGE =           0.0000
       CONSTANT HEAD =           0.0000         CONSTANT HEAD =           0.0000
       RIVER LEAKAGE =           0.0000         RIVER LEAKAGE =           0.0000
            RECHARGE =          61.5720              RECHARGE =          27.1144

            TOTAL IN =          61.5720              TOTAL IN =          27.1144

          OUT:                                     OUT:
          ----                                     ----
             STORAGE =          38.6987               STORAGE =          18.9590
       CONSTANT HEAD =           9.7661         CONSTANT HEAD =           3.2563
       RIVER LEAKAGE =          13.1072         RIVER LEAKAGE =           4.8991
            RECHARGE =           0.0000              RECHARGE =           0.0000

           TOTAL OUT =          61.5721             TOTAL OUT =          27.1144

            IN - OUT =      -2.2888E-05              IN - OUT =       3.0518E-05

 PERCENT DISCREPANCY =          -0.00     PERCENT DISCREPANCY =           0.00






         TIME SUMMARY AT END OF TIME STEP    1 IN STRESS PERIOD    3
                    SECONDS     MINUTES      HOURS       DAYS        YEARS
                    -----------------------------------------------------------
   TIME STEP LENGTH  86400.      1440.0      24.000      1.0000     2.73785E-03
 STRESS PERIOD TIME  86400.      1440.0      24.000      1.0000     2.73785E-03
         TOTAL TIME 2.59200E+05  4320.0      72.000      3.0000     8.21355E-03
1
1
                            STRESS PERIOD NO.    4, LENGTH =   1.000000    
                            -----------------------------------------------

                              NUMBER OF TIME STEPS =     1

                               MULTIPLIER FOR DELT =     1.000

                            INITIAL TIME STEP SIZE =   1.000000    

 REUSING NON-PARAMETER RIVER REACHES FROM LAST STRESS PERIOD

      2 RIVER REACHES

                 RECHARGE =  3.042241E-03
 
 SOLVING FOR HEAD 

 OUTPUT CONTROL FOR STRESS PERIOD    4   TIME STEP    1
    SAVE HEAD FOR ALL LAYERS

 HEAD WILL BE SAVED ON UNIT   51 AT END OF TIME STEP    1, STRESS PERIOD    4
1
  VOLUMETRIC BUDGET FOR ENTIRE MODEL AT END OF TIME STEP    1, STRESS PERIOD   4
  ------------------------------------------------------------------------------

     CUMULATIVE VOLUMES      L**3       RATES FOR THIS TIME STEP      L**3/T
     ------------------                 ------------------------

           IN:                                      IN:
           ---                                      ---
             STORAGE =           0.0000               STORAGE =           0.0000
       CONSTANT HEAD =           0.0000         CONSTANT HEAD =           0.0000
       RIVER LEAKAGE =           0.0000         RIVER LEAKAGE =           0.0000
            RECHARGE =          91.9944              RECHARGE =          30.4224

            TOTAL IN =          91.9944              TOTAL IN =          30.4224

          OUT:                                     OUT:
          ----                                     ----
             STORAGE =          60.5074               STORAGE =          21.8087
       CONSTANT HEAD =          13.0238         CONSTANT HEAD =           3.2576
       RIVER LEAKAGE =          18.4631         RIVER LEAKAGE =           5.3559
            RECHARGE =           0.0000              RECHARGE =           0.0000

           TOTAL OUT =          91.9943             TOTAL OUT =          30.4223

            IN - OUT =       1.2970E-04              IN - OUT =       1.5068E-04

 PERCENT DISCREPANCY =           0.00     PERCENT DISCREPANCY =           0.00






         TIME SUMMARY AT END OF TIME STEP    1 IN STRESS PERIOD    4
                    SECONDS     MINUTES      HOURS       DAYS        YEARS
                    -----------------------------------------------------------
   TIME STEP LENGTH  86400.      1440.0      24.000      1.0000     2.73785E-03
 STRESS PERIOD TIME  86400.      1440.0      24.000      1.0000     2.73785E-03
         TOTAL TIME 3.45600E+05  5760.0      96.000      4.0000     1.09514E-02
1
1
                            STRESS PERIOD NO.    5, LENGTH =   1.000000    
                            -----------------------------------------------

                              NUMBER OF TIME STEPS =     1

                               MULTIPLIER FOR DELT =     1.000

                            INITIAL TIME STEP SIZE =   1.000000    

 REUSING NON-PARAMETER RIVER REACHES FROM LAST STRESS PERIOD

      2 RIVER REACHES

                 RECHARGE =  2.830603E-03
 
 SOLVING FOR HEAD 

 OUTPUT CONTROL FOR STRESS PERIOD    5   TIME STEP    1
    SAVE HEAD FOR ALL LAYERS

 HEAD WILL BE SAVED ON UNIT   51 AT END OF TIME STEP    1, STRESS PERIOD    5
1
  VOLUMETRIC BUDGET FOR ENTIRE MODEL AT END OF TIME STEP    1, STRESS PERIOD   5
  ------------------------------------------------------------------------------

     CUMULATIVE VOLUMES      L**3       RATES FOR THIS TIME STEP      L**3/T
     ------------------                 ------------------------

           IN:                                      IN:
           ---                                      ---
             STORAGE =           0.0000               STORAGE =           0.0000
       CONSTANT HEAD =           0.0000         CONSTANT HEAD =           0.0000
       RIVER LEAKAGE =           0.0000         RIVER LEAKAGE =           0.0000
            RECHARGE =         120.3005              RECHARGE =          28.3060

            TOTAL IN =         120.3005              TOTAL IN =          28.3060

          OUT:                                     OUT:
          ----                                     ----
             STORAGE =          79.9119               STORAGE =          19.4045
       CONSTANT HEAD =          16.2829         CONSTANT HEAD =           3.2592
       RIVER LEAKAGE =          24.1055         RIVER LEAKAGE =           5.6423
            RECHARGE =           0.0000              RECHARGE =           0.0000

           TOTAL OUT =         120.3003             TOTAL OUT =          28.3060

            IN - OUT =       1.2970E-04              IN - OUT =       1.9073E-06

 PERCENT DISCREPANCY =           0.00     PERCENT DISCREPANCY =           0.00






         TIME SUMMARY AT END OF TIME STEP    1 IN STRESS PERIOD    5
                    SECONDS     MINUTES      HOURS       DAYS        YEARS
                    -----------------------------------------------------------
   TIME STEP LENGTH  86400.      1440.0      24.000      1.0000     2.73785E-03
 STRESS PERIOD TIME  86400.      1440.0      24.000      1.0000     2.73785E-03
         TOTAL TIME 4.32000E+05  7200.0      120.00      5.0000     1.36893E-02
1
1
                            STRESS PERIOD NO.    6, LENGTH =   1.000000    
                            -----------------------------------------------

                              NUMBER OF TIME STEPS =     1

                               MULTIPLIER FOR DELT =     1.000

                            INITIAL TIME STEP SIZE =   1.000000    

 REUSING NON-PARAMETER RIVER REACHES FROM LAST STRESS PERIOD

      2 RIVER REACHES

                 RECHARGE =  2.316379E-03
 
 SOLVING FOR HEAD 

 OUTPUT CONTROL FOR STRESS PERIOD    6   TIME STEP    1
    SAVE HEAD FOR ALL LAYERS

 HEAD WILL BE SAVED ON UNIT   51 AT END OF TIME STEP    1, STRESS PERIOD    6
1
  VOLUMETRIC BUDGET FOR ENTIRE MODEL AT END OF TIME STEP    1, STRESS PERIOD   6
  ------------------------------------------------------------------------------

     CUMULATIVE VOLUMES      L**3       RATES FOR THIS TIME STEP      L**3/T
     ------------------                 ------------------------

           IN:                                      IN:
           ---                                      ---
             STORAGE =           0.0000               STORAGE =           0.0000
       CONSTANT HEAD =           0.0000         CONSTANT HEAD =           0.0000
       RIVER LEAKAGE =           0.0000         RIVER LEAKAGE =           0.0000
            RECHARGE =         143.4643              RECHARGE =          23.1638

            TOTAL IN =         143.4643              TOTAL IN =          23.1638

          OUT:                                     OUT:
          ----                                     ----
             STORAGE =          94.0893               STORAGE =          14.1774
       CONSTANT HEAD =          19.5436         CONSTANT HEAD =           3.2607
       RIVER LEAKAGE =          29.8312         RIVER LEAKAGE =           5.7257
            RECHARGE =           0.0000              RECHARGE =           0.0000

           TOTAL OUT =         143.4642             TOTAL OUT =          23.1638

            IN - OUT =       9.1553E-05              IN - OUT =      -2.8610E-05

 PERCENT DISCREPANCY =           0.00     PERCENT DISCREPANCY =          -0.00






         TIME SUMMARY AT END OF TIME STEP    1 IN STRESS PERIOD    6
                    SECONDS     MINUTES      HOURS       DAYS        YEARS
                    -----------------------------------------------------------
   TIME STEP LENGTH  86400.      1440.0      24.000      1.0000     2.73785E-03
 STRESS PERIOD TIME  86400.      1440.0      24.000      1.0000     2.73785E-03
         TOTAL TIME 5.18400E+05  8640.0      144.00      6.0000     1.64271E-02
1
1
                            STRESS PERIOD NO.    7, LENGTH =   1.000000    
                            -----------------------------------------------

                              NUMBER OF TIME STEPS =     1

                               MULTIPLIER FOR DELT =     1.000

                            INITIAL TIME STEP SIZE =   1.000000    

 REUSING NON-PARAMETER RIVER REACHES FROM LAST STRESS PERIOD

      2 RIVER REACHES

                 RECHARGE =  3.361638E-03
 
 SOLVING FOR HEAD 

 OUTPUT CONTROL FOR STRESS PERIOD    7   TIME STEP    1
    SAVE HEAD FOR ALL LAYERS

 HEAD WILL BE SAVED ON UNIT   51 AT END OF TIME STEP    1, STRESS PERIOD    7
1
  VOLUMETRIC BUDGET FOR ENTIRE MODEL AT END OF TIME STEP    1, STRESS PERIOD   7
  ------------------------------------------------------------------------------

     CUMULATIVE VOLUMES      L**3       RATES FOR THIS TIME STEP      L**3/T
     ------------------                 ------------------------

           IN:                                      IN:
           ---                                      ---
             STORAGE =           0.0000               STORAGE =           0.0000
       CONSTANT HEAD =           0.0000         CONSTANT HEAD =           0.0000
       RIVER LEAKAGE =           0.0000         RIVER LEAKAGE =           0.0000
            RECHARGE =         177.0806              RECHARGE =          33.6164

            TOTAL IN =         177.0806              TOTAL IN =          33.6164

          OUT:                                     OUT:
          ----                                     ----
             STORAGE =         118.2218               STORAGE =          24.1324
       CONSTANT HEAD =          22.8063         CONSTANT HEAD =           3.2626
       RIVER LEAKAGE =          36.0527         RIVER LEAKAGE =           6.2215
            RECHARGE =           0.0000              RECHARGE =           0.0000

           TOTAL OUT =         177.0807             TOTAL OUT =          33.6165

            IN - OUT =      -4.5776E-05              IN - OUT =      -1.5259E-04

 PERCENT DISCREPANCY =          -0.00     PERCENT DISCREPANCY =          -0.00






         TIME SUMMARY AT END OF TIME STEP    1 IN STRESS PERIOD    7
                    SECONDS     MINUTES      HOURS       DAYS        YEARS
                    -----------------------------------------------------------
   TIME STEP LENGTH  86400.      1440.0      24.000      1.0000     2.73785E-03
 STRESS PERIOD TIME  86400.      1440.0      24.000      1.0000     2.73785E-03
         TOTAL TIME 6.04800E+05  10080.      168.00      7.0000     1.91650E-02
1
1
                            STRESS PERIOD NO.    8, LENGTH =   1.000000    
                            -----------------------------------------------

                              NUMBER OF TIME STEPS =     1

                               MULTIPLIER FOR DELT =     1.000

                            INITIAL TIME STEP SIZE =   1.000000    

 REUSING NON-PARAMETER RIVER REACHES FROM LAST STRESS PERIOD

      2 RIVER REACHES

                 RECHARGE =  2.455172E-03
 
 SOLVING FOR HEAD 

 OUTPUT CONTROL FOR STRESS PERIOD    8   TIME STEP    1
    SAVE HEAD FOR ALL LAYERS

 HEAD WILL BE SAVED ON UNIT   51 AT END OF TIME STEP    1, STRESS PERIOD    8
1
  VOLUMETRIC BUDGET FOR ENTIRE MODEL AT END OF TIME STEP    1, STRESS PERIOD   8
  ------------------------------------------------------------------------------

     CUMULATIVE VOLUMES      L**3       RATES FOR THIS TIME STEP      L**3/T
     ------------------                 ------------------------

           IN:                                      IN:
           ---                                      ---
             STORAGE =           0.0000               STORAGE =           0.0000
       CONSTANT HEAD =           0.0000         CONSTANT HEAD =           0.0000
       RIVER LEAKAGE =           0.0000         RIVER LEAKAGE =           0.0000
            RECHARGE =         201.6324              RECHARGE =          24.5517

            TOTAL IN =         201.6324              TOTAL IN =          24.5517

          OUT:                                     OUT:
          ----                                     ----
             STORAGE =         133.2412               STORAGE =          15.0194
       CONSTANT HEAD =          26.0708         CONSTANT HEAD =           3.2645
       RIVER LEAKAGE =          42.3206         RIVER LEAKAGE =           6.2680
            RECHARGE =           0.0000              RECHARGE =           0.0000

           TOTAL OUT =         201.6326             TOTAL OUT =          24.5519

            IN - OUT =      -2.2888E-04              IN - OUT =      -1.7548E-04

 PERCENT DISCREPANCY =          -0.00     PERCENT DISCREPANCY =          -0.00






         TIME SUMMARY AT END OF TIME STEP    1 IN STRESS PERIOD    8
                    SECONDS     MINUTES      HOURS       DAYS        YEARS
                    -----------------------------------------------------------
   TIME STEP LENGTH  86400.      1440.0      24.000      1.0000     2.73785E-03
 STRESS PERIOD TIME  86400.      1440.0      24.000      1.0000     2.73785E-03
         TOTAL TIME 6.91200E+05  11520.      192.00      8.0000     2.19028E-02
1
1
                            STRESS PERIOD NO.    9, LENGTH =   1.000000    
                            -----------------------------------------------

                              NUMBER OF TIME STEPS =     1

                               MULTIPLIER FOR DELT =     1.000

                            INITIAL TIME STEP SIZE =   1.000000    

 REUSING NON-PARAMETER RIVER REACHES FROM LAST STRESS PERIOD

      2 RIVER REACHES

                 RECHARGE =  1.496121E-03
 
 SOLVING FOR HEAD 

 OUTPUT CONTROL FOR STRESS PERIOD    9   TIME STEP    1
    SAVE HEAD FOR ALL LAYERS

 HEAD WILL BE SAVED ON UNIT   51 AT END OF TIME STEP    1, STRESS PERIOD    9
1
  VOLUMETRIC BUDGET FOR ENTIRE MODEL AT END OF TIME STEP    1, STRESS PERIOD   9
  ------------------------------------------------------------------------------

     CUMULATIVE VOLUMES      L**3       RATES FOR THIS TIME STEP      L**3/T
     ------------------                 ------------------------

           IN:                                      IN:
           ---                                      ---
             STORAGE =           0.3084               STORAGE =           0.3084
       CONSTANT HEAD =           0.0000         CONSTANT HEAD =           0.0000
       RIVER LEAKAGE =           0.0000         RIVER LEAKAGE =           0.0000
            RECHARGE =         216.5936              RECHARGE =          14.9612

            TOTAL IN =         216.9019              TOTAL IN =          15.2696

          OUT:                                     OUT:
          ----                                     ----
             STORAGE =         139.2009               STORAGE =           5.9597
       CONSTANT HEAD =          29.3369         CONSTANT HEAD =           3.2661
       RIVER LEAKAGE =          48.3644         RIVER LEAKAGE =           6.0438
            RECHARGE =           0.0000              RECHARGE =           0.0000

           TOTAL OUT =         216.9022             TOTAL OUT =          15.2696

            IN - OUT =      -2.2888E-04              IN - OUT =      -9.5367E-07

 PERCENT DISCREPANCY =          -0.00     PERCENT DISCREPANCY =          -0.00






         TIME SUMMARY AT END OF TIME STEP    1 IN STRESS PERIOD    9
                    SECONDS     MINUTES      HOURS       DAYS        YEARS
                    -----------------------------------------------------------
   TIME STEP LENGTH  86400.      1440.0      24.000      1.0000     2.73785E-03
 STRESS PERIOD TIME  86400.      1440.0      24.000      1.0000     2.73785E-03
         TOTAL TIME 7.77600E+05  12960.      216.00      9.0000     2.46407E-02
1
1
                            STRESS PERIOD NO.   10, LENGTH =   1.000000    
                            -----------------------------------------------

                              NUMBER OF TIME STEPS =     1

                               MULTIPLIER FOR DELT =     1.000

                            INITIAL TIME STEP SIZE =   1.000000    

 REUSING NON-PARAMETER RIVER REACHES FROM LAST STRESS PERIOD

      2 RIVER REACHES

                 RECHARGE =  1.755172E-03
 
 SOLVING FOR HEAD 

 OUTPUT CONTROL FOR STRESS PERIOD   10   TIME STEP    1
    SAVE HEAD FOR ALL LAYERS

 HEAD WILL BE SAVED ON UNIT   51 AT END OF TIME STEP    1, STRESS PERIOD   10
1
  VOLUMETRIC BUDGET FOR ENTIRE MODEL AT END OF TIME STEP    1, STRESS PERIOD  10
  ------------------------------------------------------------------------------

     CUMULATIVE VOLUMES      L**3       RATES FOR THIS TIME STEP      L**3/T
     ------------------                 ------------------------

           IN:                                      IN:
           ---                                      ---
             STORAGE =           0.3084               STORAGE =           0.0000
       CONSTANT HEAD =           0.0000         CONSTANT HEAD =           0.0000
       RIVER LEAKAGE =           0.0000         RIVER LEAKAGE =           0.0000
            RECHARGE =         234.1453              RECHARGE =          17.5517

            TOTAL IN =         234.4537              TOTAL IN =          17.5517

          OUT:                                     OUT:
          ----                                     ----
             STORAGE =         147.4348               STORAGE =           8.2340
       CONSTANT HEAD =          32.6047         CONSTANT HEAD =           3.2678
       RIVER LEAKAGE =          54.4145         RIVER LEAKAGE =           6.0501
            RECHARGE =           0.0000              RECHARGE =           0.0000

           TOTAL OUT =         234.4540             TOTAL OUT =          17.5519

            IN - OUT =      -3.8147E-04              IN - OUT =      -1.6022E-04

 PERCENT DISCREPANCY =          -0.00     PERCENT DISCREPANCY =          -0.00






         TIME SUMMARY AT END OF TIME STEP    1 IN STRESS PERIOD   10
                    SECONDS     MINUTES      HOURS       DAYS        YEARS
                    -----------------------------------------------------------
   TIME STEP LENGTH  86400.      1440.0      24.000      1.0000     2.73785E-03
 STRESS PERIOD TIME  86400.      1440.0      24.000      1.0000     2.73785E-03
         TOTAL TIME 8.64000E+05  14400.      240.00      10.000     2.73785E-02
1
1
                            STRESS PERIOD NO.   11, LENGTH =   1.000000    
                            -----------------------------------------------

                              NUMBER OF TIME STEPS =     1

                               MULTIPLIER FOR DELT =     1.000

                            INITIAL TIME STEP SIZE =   1.000000    

 REUSING NON-PARAMETER RIVER REACHES FROM LAST STRESS PERIOD

      2 RIVER REACHES

                 RECHARGE =  1.615517E-03
 
 SOLVING FOR HEAD 

 OUTPUT CONTROL FOR STRESS PERIOD   11   TIME STEP    1
    SAVE HEAD FOR ALL LAYERS

 HEAD WILL BE SAVED ON UNIT   51 AT END OF TIME STEP    1, STRESS PERIOD   11
1
  VOLUMETRIC BUDGET FOR ENTIRE MODEL AT END OF TIME STEP    1, STRESS PERIOD  11
  ------------------------------------------------------------------------------

     CUMULATIVE VOLUMES      L**3       RATES FOR THIS TIME STEP      L**3/T
     ------------------                 ------------------------

           IN:                                      IN:
           ---                                      ---
             STORAGE =           0.3266               STORAGE =       1.8191E-02
       CONSTANT HEAD =           0.0000         CONSTANT HEAD =           0.0000
       RIVER LEAKAGE =           0.0000         RIVER LEAKAGE =           0.0000
            RECHARGE =         250.3005              RECHARGE =          16.1552

            TOTAL IN =         250.6270              TOTAL IN =          16.1734

          OUT:                                     OUT:
          ----                                     ----
             STORAGE =         154.3165               STORAGE =           6.8816
       CONSTANT HEAD =          35.8740         CONSTANT HEAD =           3.2693
       RIVER LEAKAGE =          60.4370         RIVER LEAKAGE =           6.0225
            RECHARGE =           0.0000              RECHARGE =           0.0000

           TOTAL OUT =         250.6275             TOTAL OUT =          16.1734

            IN - OUT =      -4.7302E-04              IN - OUT =      -7.8201E-05

 PERCENT DISCREPANCY =          -0.00     PERCENT DISCREPANCY =          -0.00






         TIME SUMMARY AT END OF TIME STEP    1 IN STRESS PERIOD   11
                    SECONDS     MINUTES      HOURS       DAYS        YEARS
                    -----------------------------------------------------------
   TIME STEP LENGTH  86400.      1440.0      24.000      1.0000     2.73785E-03
 STRESS PERIOD TIME  86400.      1440.0      24.000      1.0000     2.73785E-03
         TOTAL TIME 9.50400E+05  15840.      264.00      11.000     3.01164E-02
1
1
                            STRESS PERIOD NO.   12, LENGTH =   1.000000    
                            -----------------------------------------------

                              NUMBER OF TIME STEPS =     1

                               MULTIPLIER FOR DELT =     1.000

                            INITIAL TIME STEP SIZE =   1.000000    

 REUSING NON-PARAMETER RIVER REACHES FROM LAST STRESS PERIOD

      2 RIVER REACHES

                 RECHARGE =  1.616810E-03
 
 SOLVING FOR HEAD 

 OUTPUT CONTROL FOR STRESS PERIOD   12   TIME STEP    1
    SAVE HEAD FOR ALL LAYERS

 HEAD WILL BE SAVED ON UNIT   51 AT END OF TIME STEP    1, STRESS PERIOD   12
1
  VOLUMETRIC BUDGET FOR ENTIRE MODEL AT END OF TIME STEP    1, STRESS PERIOD  12
  ------------------------------------------------------------------------------

     CUMULATIVE VOLUMES      L**3       RATES FOR THIS TIME STEP      L**3/T
     ------------------                 ------------------------

           IN:                                      IN:
           ---                                      ---
             STORAGE =           0.3266               STORAGE =           0.0000
       CONSTANT HEAD =           0.0000         CONSTANT HEAD =           0.0000
       RIVER LEAKAGE =           0.0000         RIVER LEAKAGE =           0.0000
            RECHARGE =         266.4686              RECHARGE =          16.1681

            TOTAL IN =         266.7951              TOTAL IN =          16.1681

          OUT:                                     OUT:
          ----                                     ----
             STORAGE =         161.1886               STORAGE =           6.8722
       CONSTANT HEAD =          39.1450         CONSTANT HEAD =           3.2709
       RIVER LEAKAGE =          66.4620         RIVER LEAKAGE =           6.0250
            RECHARGE =           0.0000              RECHARGE =           0.0000

           TOTAL OUT =         266.7956             TOTAL OUT =          16.1682

            IN - OUT =      -4.8828E-04              IN - OUT =      -5.3406E-05

 PERCENT DISCREPANCY =          -0.00     PERCENT DISCREPANCY =          -0.00






         TIME SUMMARY AT END OF TIME STEP    1 IN STRESS PERIOD   12
                    SECONDS     MINUTES      HOURS       DAYS        YEARS
                    -----------------------------------------------------------
   TIME STEP LENGTH  86400.      1440.0      24.000      1.0000     2.73785E-03
 STRESS PERIOD TIME  86400.      1440.0      24.000      1.0000     2.73785E-03
         TOTAL TIME 1.03680E+06  17280.      288.00      12.000     3.28542E-02
1
1
                            STRESS PERIOD NO.   13, LENGTH =   1.000000    
                            -----------------------------------------------

                              NUMBER OF TIME STEPS =     1

                               MULTIPLIER FOR DELT =     1.000

                            INITIAL TIME STEP SIZE =   1.000000    

 REUSING NON-PARAMETER RIVER REACHES FROM LAST STRESS PERIOD

      2 RIVER REACHES

                 RECHARGE =  1.361207E-03
 
 SOLVING FOR HEAD 

 OUTPUT CONTROL FOR STRESS PERIOD   13   TIME STEP    1
    SAVE HEAD FOR ALL LAYERS

 HEAD WILL BE SAVED ON UNIT   51 AT END OF TIME STEP    1, STRESS PERIOD   13
1
  VOLUMETRIC BUDGET FOR ENTIRE MODEL AT END OF TIME STEP    1, STRESS PERIOD  13
  ------------------------------------------------------------------------------

     CUMULATIVE VOLUMES      L**3       RATES FOR THIS TIME STEP      L**3/T
     ------------------                 ------------------------

           IN:                                      IN:
           ---                                      ---
             STORAGE =           0.4628               STORAGE =           0.1362
       CONSTANT HEAD =           0.0000         CONSTANT HEAD =           0.0000
       RIVER LEAKAGE =           0.0000         RIVER LEAKAGE =           0.0000
            RECHARGE =         280.0806              RECHARGE =          13.6121

            TOTAL IN =         280.5434              TOTAL IN =          13.7483

          OUT:                                     OUT:
          ----                                     ----
             STORAGE =         165.7133               STORAGE =           4.5247
       CONSTANT HEAD =          42.4174         CONSTANT HEAD =           3.2724
       RIVER LEAKAGE =          72.4134         RIVER LEAKAGE =           5.9514
            RECHARGE =           0.0000              RECHARGE =           0.0000

           TOTAL OUT =         280.5441             TOTAL OUT =          13.7485

            IN - OUT =      -7.3242E-04              IN - OUT =      -2.0695E-04

 PERCENT DISCREPANCY =          -0.00     PERCENT DISCREPANCY =          -0.00






         TIME SUMMARY AT END OF TIME STEP    1 IN STRESS PERIOD   13
                    SECONDS     MINUTES      HOURS       DAYS        YEARS
                    -----------------------------------------------------------
   TIME STEP LENGTH  86400.      1440.0      24.000      1.0000     2.73785E-03
 STRESS PERIOD TIME  86400.      1440.0      24.000      1.0000     2.73785E-03
         TOTAL TIME 1.12320E+06  18720.      312.00      13.000     3.55921E-02
1
1
                            STRESS PERIOD NO.   14, LENGTH =   1.000000    
                            -----------------------------------------------

                              NUMBER OF TIME STEPS =     1

                               MULTIPLIER FOR DELT =     1.000

                            INITIAL TIME STEP SIZE =   1.000000    

 REUSING NON-PARAMETER RIVER REACHES FROM LAST STRESS PERIOD

      2 RIVER REACHES

                 RECHARGE =  1.643103E-03
 
 SOLVING FOR HEAD 

 OUTPUT CONTROL FOR STRESS PERIOD   14   TIME STEP    1
    SAVE HEAD FOR ALL LAYERS

 HEAD WILL BE SAVED ON UNIT   51 AT END OF TIME STEP    1, STRESS PERIOD   14
1
  VOLUMETRIC BUDGET FOR ENTIRE MODEL AT END OF TIME STEP    1, STRESS PERIOD  14
  ------------------------------------------------------------------------------

     CUMULATIVE VOLUMES      L**3       RATES FOR THIS TIME STEP      L**3/T
     ------------------                 ------------------------

           IN:                                      IN:
           ---                                      ---
             STORAGE =           0.4628               STORAGE =           0.0000
       CONSTANT HEAD =           0.0000         CONSTANT HEAD =           0.0000
       RIVER LEAKAGE =           0.0000         RIVER LEAKAGE =           0.0000
            RECHARGE =         296.5117              RECHARGE =          16.4310

            TOTAL IN =         296.9744              TOTAL IN =          16.4310

          OUT:                                     OUT:
          ----                                     ----
             STORAGE =         172.8519               STORAGE =           7.1386
       CONSTANT HEAD =          45.6914         CONSTANT HEAD =           3.2740
       RIVER LEAKAGE =          78.4317         RIVER LEAKAGE =           6.0183
            RECHARGE =           0.0000              RECHARGE =           0.0000

           TOTAL OUT =         296.9750             TOTAL OUT =          16.4309

            IN - OUT =      -5.4932E-04              IN - OUT =       1.7548E-04

 PERCENT DISCREPANCY =          -0.00     PERCENT DISCREPANCY =           0.00






         TIME SUMMARY AT END OF TIME STEP    1 IN STRESS PERIOD   14
                    SECONDS     MINUTES      HOURS       DAYS        YEARS
                    -----------------------------------------------------------
   TIME STEP LENGTH  86400.      1440.0      24.000      1.0000     2.73785E-03
 STRESS PERIOD TIME  86400.      1440.0      24.000      1.0000     2.73785E-03
         TOTAL TIME 1.20960E+06  20160.      336.00      14.000     3.83299E-02
1
1
                            STRESS PERIOD NO.   15, LENGTH =   1.000000    
                            -----------------------------------------------

                              NUMBER OF TIME STEPS =     1

                               MULTIPLIER FOR DELT =     1.000

                            INITIAL TIME STEP SIZE =   1.000000    

 REUSING NON-PARAMETER RIVER REACHES FROM LAST STRESS PERIOD

      2 RIVER REACHES

                 RECHARGE =  1.444828E-03
 
 SOLVING FOR HEAD 

 OUTPUT CONTROL FOR STRESS PERIOD   15   TIME STEP    1
    SAVE HEAD FOR ALL LAYERS

 HEAD WILL BE SAVED ON UNIT   51 AT END OF TIME STEP    1, STRESS PERIOD   15
1
  VOLUMETRIC BUDGET FOR ENTIRE MODEL AT END OF TIME STEP    1, STRESS PERIOD  15
  ------------------------------------------------------------------------------

     CUMULATIVE VOLUMES      L**3       RATES FOR THIS TIME STEP      L**3/T
     ------------------                 ------------------------

           IN:                                      IN:
           ---                                      ---
             STORAGE =           0.4757               STORAGE =       1.2898E-02
       CONSTANT HEAD =           0.0000         CONSTANT HEAD =           0.0000
       RIVER LEAKAGE =           0.0000         RIVER LEAKAGE =           0.0000
            RECHARGE =         310.9599              RECHARGE =          14.4483

            TOTAL IN =         311.4356              TOTAL IN =          14.4612

          OUT:                                     OUT:
          ----                                     ----
             STORAGE =         178.0415               STORAGE =           5.1896
       CONSTANT HEAD =          48.9669         CONSTANT HEAD =           3.2755
       RIVER LEAKAGE =          84.4276         RIVER LEAKAGE =           5.9959
            RECHARGE =           0.0000              RECHARGE =           0.0000

           TOTAL OUT =         311.4360             TOTAL OUT =          14.4610

            IN - OUT =      -3.9673E-04              IN - OUT =       1.3828E-04

 PERCENT DISCREPANCY =          -0.00     PERCENT DISCREPANCY =           0.00






         TIME SUMMARY AT END OF TIME STEP    1 IN STRESS PERIOD   15
                    SECONDS     MINUTES      HOURS       DAYS        YEARS
                    -----------------------------------------------------------
   TIME STEP LENGTH  86400.      1440.0      24.000      1.0000     2.73785E-03
 STRESS PERIOD TIME  86400.      1440.0      24.000      1.0000     2.73785E-03
         TOTAL TIME 1.29600E+06  21600.      360.00      15.000     4.10678E-02
1
1
                            STRESS PERIOD NO.   16, LENGTH =   1.000000    
                            -----------------------------------------------

                              NUMBER OF TIME STEPS =     1

                               MULTIPLIER FOR DELT =     1.000

                            INITIAL TIME STEP SIZE =   1.000000    

 REUSING NON-PARAMETER RIVER REACHES FROM LAST STRESS PERIOD

      2 RIVER REACHES

                 RECHARGE =  2.337500E-03
 
 SOLVING FOR HEAD 

 OUTPUT CONTROL FOR STRESS PERIOD   16   TIME STEP    1
    SAVE HEAD FOR ALL LAYERS

 HEAD WILL BE SAVED ON UNIT   51 AT END OF TIME STEP    1, STRESS PERIOD   16
1
  VOLUMETRIC BUDGET FOR ENTIRE MODEL AT END OF TIME STEP    1, STRESS PERIOD  16
  ------------------------------------------------------------------------------

     CUMULATIVE VOLUMES      L**3       RATES FOR THIS TIME STEP      L**3/T
     ------------------                 ------------------------

           IN:                                      IN:
           ---                                      ---
             STORAGE =           0.4757               STORAGE =           0.0000
       CONSTANT HEAD =           0.0000         CONSTANT HEAD =           0.0000
       RIVER LEAKAGE =           0.0000         RIVER LEAKAGE =           0.0000
            RECHARGE =         334.3349              RECHARGE =          23.3750

            TOTAL IN =         334.8106              TOTAL IN =          23.3750

          OUT:                                     OUT:
          ----                                     ----
             STORAGE =         191.8294               STORAGE =          13.7879
       CONSTANT HEAD =          52.2443         CONSTANT HEAD =           3.2774
       RIVER LEAKAGE =          90.7374         RIVER LEAKAGE =           6.3098
            RECHARGE =           0.0000              RECHARGE =           0.0000

           TOTAL OUT =         334.8111             TOTAL OUT =          23.3751

            IN - OUT =      -4.8828E-04              IN - OUT =      -6.4850E-05

 PERCENT DISCREPANCY =          -0.00     PERCENT DISCREPANCY =          -0.00






         TIME SUMMARY AT END OF TIME STEP    1 IN STRESS PERIOD   16
                    SECONDS     MINUTES      HOURS       DAYS        YEARS
                    -----------------------------------------------------------
   TIME STEP LENGTH  86400.      1440.0      24.000      1.0000     2.73785E-03
 STRESS PERIOD TIME  86400.      1440.0      24.000      1.0000     2.73785E-03
         TOTAL TIME 1.38240E+06  23040.      384.00      16.000     4.38056E-02
1
1
                            STRESS PERIOD NO.   17, LENGTH =   1.000000    
                            -----------------------------------------------

                              NUMBER OF TIME STEPS =     1

                               MULTIPLIER FOR DELT =     1.000

                            INITIAL TIME STEP SIZE =   1.000000    

 REUSING NON-PARAMETER RIVER REACHES FROM LAST STRESS PERIOD

      2 RIVER REACHES

                 RECHARGE =  1.406034E-03
 
 SOLVING FOR HEAD 

 OUTPUT CONTROL FOR STRESS PERIOD   17   TIME STEP    1
    SAVE HEAD FOR ALL LAYERS

 HEAD WILL BE SAVED ON UNIT   51 AT END OF TIME STEP    1, STRESS PERIOD   17
1
  VOLUMETRIC BUDGET FOR ENTIRE MODEL AT END OF TIME STEP    1, STRESS PERIOD  17
  ------------------------------------------------------------------------------

     CUMULATIVE VOLUMES      L**3       RATES FOR THIS TIME STEP      L**3/T
     ------------------                 ------------------------

           IN:                                      IN:
           ---                                      ---
             STORAGE =           0.6038               STORAGE =           0.1281
       CONSTANT HEAD =           0.0000         CONSTANT HEAD =           0.0000
       RIVER LEAKAGE =           0.0000         RIVER LEAKAGE =           0.0000
            RECHARGE =         348.3953              RECHARGE =          14.0603

            TOTAL IN =         348.9991              TOTAL IN =          14.1885

          OUT:                                     OUT:
          ----                                     ----
             STORAGE =         196.5516               STORAGE =           4.7222
       CONSTANT HEAD =          55.5233         CONSTANT HEAD =           3.2790
       RIVER LEAKAGE =          96.9248         RIVER LEAKAGE =           6.1874
            RECHARGE =           0.0000              RECHARGE =           0.0000

           TOTAL OUT =         348.9997             TOTAL OUT =          14.1886

            IN - OUT =      -6.4087E-04              IN - OUT =      -1.7834E-04

 PERCENT DISCREPANCY =          -0.00     PERCENT DISCREPANCY =          -0.00






         TIME SUMMARY AT END OF TIME STEP    1 IN STRESS PERIOD   17
                    SECONDS     MINUTES      HOURS       DAYS        YEARS
                    -----------------------------------------------------------
   TIME STEP LENGTH  86400.      1440.0      24.000      1.0000     2.73785E-03
 STRESS PERIOD TIME  86400.      1440.0      24.000      1.0000     2.73785E-03
         TOTAL TIME 1.46880E+06  24480.      408.00      17.000     4.65435E-02
1
1
                            STRESS PERIOD NO.   18, LENGTH =   1.000000    
                            -----------------------------------------------

                              NUMBER OF TIME STEPS =     1

                               MULTIPLIER FOR DELT =     1.000

                            INITIAL TIME STEP SIZE =   1.000000    

 REUSING NON-PARAMETER RIVER REACHES FROM LAST STRESS PERIOD

      2 RIVER REACHES

                 RECHARGE =  1.556897E-03
 
 SOLVING FOR HEAD 

 OUTPUT CONTROL FOR STRESS PERIOD   18   TIME STEP    1
    SAVE HEAD FOR ALL LAYERS

 HEAD WILL BE SAVED ON UNIT   51 AT END OF TIME STEP    1, STRESS PERIOD   18
1
  VOLUMETRIC BUDGET FOR ENTIRE MODEL AT END OF TIME STEP    1, STRESS PERIOD  18
  ------------------------------------------------------------------------------

     CUMULATIVE VOLUMES      L**3       RATES FOR THIS TIME STEP      L**3/T
     ------------------                 ------------------------

           IN:                                      IN:
           ---                                      ---
             STORAGE =           0.6038               STORAGE =           0.0000
       CONSTANT HEAD =           0.0000         CONSTANT HEAD =           0.0000
       RIVER LEAKAGE =           0.0000         RIVER LEAKAGE =           0.0000
            RECHARGE =         363.9642              RECHARGE =          15.5690

            TOTAL IN =         364.5680              TOTAL IN =          15.5690

          OUT:                                     OUT:
          ----                                     ----
             STORAGE =         202.6379               STORAGE =           6.0863
       CONSTANT HEAD =          58.8040         CONSTANT HEAD =           3.2807
       RIVER LEAKAGE =         103.1266         RIVER LEAKAGE =           6.2018
            RECHARGE =           0.0000              RECHARGE =           0.0000

           TOTAL OUT =         364.5685             TOTAL OUT =          15.5687

            IN - OUT =      -4.2725E-04              IN - OUT =       2.4319E-04

 PERCENT DISCREPANCY =          -0.00     PERCENT DISCREPANCY =           0.00






         TIME SUMMARY AT END OF TIME STEP    1 IN STRESS PERIOD   18
                    SECONDS     MINUTES      HOURS       DAYS        YEARS
                    -----------------------------------------------------------
   TIME STEP LENGTH  86400.      1440.0      24.000      1.0000     2.73785E-03
 STRESS PERIOD TIME  86400.      1440.0      24.000      1.0000     2.73785E-03
         TOTAL TIME 1.55520E+06  25920.      432.00      18.000     4.92813E-02
1
1
                            STRESS PERIOD NO.   19, LENGTH =   1.000000    
                            -----------------------------------------------

                              NUMBER OF TIME STEPS =     1

                               MULTIPLIER FOR DELT =     1.000

                            INITIAL TIME STEP SIZE =   1.000000    

 REUSING NON-PARAMETER RIVER REACHES FROM LAST STRESS PERIOD

      2 RIVER REACHES

                 RECHARGE =  1.181466E-03
 
 SOLVING FOR HEAD 

 OUTPUT CONTROL FOR STRESS PERIOD   19   TIME STEP    1
    SAVE HEAD FOR ALL LAYERS

 HEAD WILL BE SAVED ON UNIT   51 AT END OF TIME STEP    1, STRESS PERIOD   19
1
  VOLUMETRIC BUDGET FOR ENTIRE MODEL AT END OF TIME STEP    1, STRESS PERIOD  19
  ------------------------------------------------------------------------------

     CUMULATIVE VOLUMES      L**3       RATES FOR THIS TIME STEP      L**3/T
     ------------------                 ------------------------

           IN:                                      IN:
           ---                                      ---
             STORAGE =           0.9433               STORAGE =           0.3395
       CONSTANT HEAD =           0.0000         CONSTANT HEAD =           0.0000
       RIVER LEAKAGE =           0.0000         RIVER LEAKAGE =           0.0000
            RECHARGE =         375.7789              RECHARGE =          11.8147

            TOTAL IN =         376.7222              TOTAL IN =          12.1542

          OUT:                                     OUT:
          ----                                     ----
             STORAGE =         205.4201               STORAGE =           2.7823
       CONSTANT HEAD =          62.0862         CONSTANT HEAD =           3.2822
       RIVER LEAKAGE =         109.2161         RIVER LEAKAGE =           6.0896
            RECHARGE =           0.0000              RECHARGE =           0.0000

           TOTAL OUT =         376.7225             TOTAL OUT =          12.1541

            IN - OUT =      -3.3569E-04              IN - OUT =       7.0572E-05

 PERCENT DISCREPANCY =          -0.00     PERCENT DISCREPANCY =           0.00






         TIME SUMMARY AT END OF TIME STEP    1 IN STRESS PERIOD   19
                    SECONDS     MINUTES      HOURS       DAYS        YEARS
                    -----------------------------------------------------------
   TIME STEP LENGTH  86400.      1440.0      24.000      1.0000     2.73785E-03
 STRESS PERIOD TIME  86400.      1440.0      24.000      1.0000     2.73785E-03
         TOTAL TIME 1.64160E+06  27360.      456.00      19.000     5.20192E-02
1
1
                            STRESS PERIOD NO.   20, LENGTH =   1.000000    
                            -----------------------------------------------

                              NUMBER OF TIME STEPS =     1

                               MULTIPLIER FOR DELT =     1.000

                            INITIAL TIME STEP SIZE =   1.000000    

 REUSING NON-PARAMETER RIVER REACHES FROM LAST STRESS PERIOD

      2 RIVER REACHES

                 RECHARGE =  1.701293E-03
 
 SOLVING FOR HEAD 

 OUTPUT CONTROL FOR STRESS PERIOD   20   TIME STEP    1
    SAVE HEAD FOR ALL LAYERS

 HEAD WILL BE SAVED ON UNIT   51 AT END OF TIME STEP    1, STRESS PERIOD   20
1
  VOLUMETRIC BUDGET FOR ENTIRE MODEL AT END OF TIME STEP    1, STRESS PERIOD  20
  ------------------------------------------------------------------------------

     CUMULATIVE VOLUMES      L**3       RATES FOR THIS TIME STEP      L**3/T
     ------------------                 ------------------------

           IN:                                      IN:
           ---                                      ---
             STORAGE =           0.9433               STORAGE =           0.0000
       CONSTANT HEAD =           0.0000         CONSTANT HEAD =           0.0000
       RIVER LEAKAGE =           0.0000         RIVER LEAKAGE =           0.0000
            RECHARGE =         392.7918              RECHARGE =          17.0129

            TOTAL IN =         393.7351              TOTAL IN =          17.0129

          OUT:                                     OUT:
          ----                                     ----
             STORAGE =         212.9353               STORAGE =           7.5151
       CONSTANT HEAD =          65.3702         CONSTANT HEAD =           3.2839
       RIVER LEAKAGE =         115.4302         RIVER LEAKAGE =           6.2140
            RECHARGE =           0.0000              RECHARGE =           0.0000

           TOTAL OUT =         393.7356             TOTAL OUT =          17.0131

            IN - OUT =      -4.2725E-04              IN - OUT =      -1.3733E-04

 PERCENT DISCREPANCY =          -0.00     PERCENT DISCREPANCY =          -0.00






         TIME SUMMARY AT END OF TIME STEP    1 IN STRESS PERIOD   20
                    SECONDS     MINUTES      HOURS       DAYS        YEARS
                    -----------------------------------------------------------
   TIME STEP LENGTH  86400.      1440.0      24.000      1.0000     2.73785E-03
 STRESS PERIOD TIME  86400.      1440.0      24.000      1.0000     2.73785E-03
         TOTAL TIME 1.72800E+06  28800.      480.00      20.000     5.47570E-02
1
1
                            STRESS PERIOD NO.   21, LENGTH =   1.000000    
                            -----------------------------------------------

                              NUMBER OF TIME STEPS =     1

                               MULTIPLIER FOR DELT =     1.000

                            INITIAL TIME STEP SIZE =   1.000000    

 REUSING NON-PARAMETER RIVER REACHES FROM LAST STRESS PERIOD

      2 RIVER REACHES

                 RECHARGE =  2.296983E-03
 
 SOLVING FOR HEAD 

 OUTPUT CONTROL FOR STRESS PERIOD   21   TIME STEP    1
    SAVE HEAD FOR ALL LAYERS

 HEAD WILL BE SAVED ON UNIT   51 AT END OF TIME STEP    1, STRESS PERIOD   21
1
  VOLUMETRIC BUDGET FOR ENTIRE MODEL AT END OF TIME STEP    1, STRESS PERIOD  21
  ------------------------------------------------------------------------------

     CUMULATIVE VOLUMES      L**3       RATES FOR THIS TIME STEP      L**3/T
     ------------------                 ------------------------

           IN:                                      IN:
           ---                                      ---
[...]
       RIVER LEAKAGE =         140.5282         RIVER LEAKAGE =           0.0000
            RECHARGE =        1631.5979              RECHARGE =           2.5776

            TOTAL IN =        3191.7507              TOTAL IN =           3.3871

          OUT:                                     OUT:
          ----                                     ----
             STORAGE =         739.8405               STORAGE =           0.3841
       CONSTANT HEAD =         859.7886         CONSTANT HEAD =           2.9328
       RIVER LEAKAGE =         765.7543         RIVER LEAKAGE =       7.0337E-02
            RECHARGE =         826.3677              RECHARGE =           0.0000

           TOTAL OUT =        3191.7510             TOTAL OUT =           3.3872

            IN - OUT =      -2.4414E-04              IN - OUT =      -1.9073E-04

 PERCENT DISCREPANCY =          -0.00     PERCENT DISCREPANCY =          -0.01






         TIME SUMMARY AT END OF TIME STEP    1 IN STRESS PERIOD  265
                    SECONDS     MINUTES      HOURS       DAYS        YEARS
                    -----------------------------------------------------------
   TIME STEP LENGTH  86400.      1440.0      24.000      1.0000     2.73785E-03
 STRESS PERIOD TIME  86400.      1440.0      24.000      1.0000     2.73785E-03
         TOTAL TIME 2.28960E+07 3.81600E+05  6360.0      265.00     0.72553    
1
1
                            STRESS PERIOD NO.  266, LENGTH =   1.000000    
                            -----------------------------------------------

                              NUMBER OF TIME STEPS =     1

                               MULTIPLIER FOR DELT =     1.000

                            INITIAL TIME STEP SIZE =   1.000000    

 REUSING NON-PARAMETER RIVER REACHES FROM LAST STRESS PERIOD

      2 RIVER REACHES

                 RECHARGE = -2.068966E-04
 
 SOLVING FOR HEAD 

 OUTPUT CONTROL FOR STRESS PERIOD  266   TIME STEP    1
    SAVE HEAD FOR ALL LAYERS

 HEAD WILL BE SAVED ON UNIT   51 AT END OF TIME STEP    1, STRESS PERIOD  266
1
  VOLUMETRIC BUDGET FOR ENTIRE MODEL AT END OF TIME STEP    1, STRESS PERIOD 266
  ------------------------------------------------------------------------------

     CUMULATIVE VOLUMES      L**3       RATES FOR THIS TIME STEP      L**3/T
     ------------------                 ------------------------

           IN:                                      IN:
           ---                                      ---
             STORAGE =        1424.4681               STORAGE =           4.8436
       CONSTANT HEAD =           0.0000         CONSTANT HEAD =           0.0000
       RIVER LEAKAGE =         140.6851         RIVER LEAKAGE =           0.1569
            RECHARGE =        1631.5979              RECHARGE =           0.0000

            TOTAL IN =        3196.7512              TOTAL IN =           5.0005

          OUT:                                     OUT:
          ----                                     ----
             STORAGE =         739.8405               STORAGE =           0.0000
       CONSTANT HEAD =         862.7201         CONSTANT HEAD =           2.9314
       RIVER LEAKAGE =         765.7543         RIVER LEAKAGE =           0.0000
            RECHARGE =         828.4366              RECHARGE =           2.0690

           TOTAL OUT =        3196.7515             TOTAL OUT =           5.0004

            IN - OUT =      -2.4414E-04              IN - OUT =       6.2943E-05

 PERCENT DISCREPANCY =          -0.00     PERCENT DISCREPANCY =           0.00






         TIME SUMMARY AT END OF TIME STEP    1 IN STRESS PERIOD  266
                    SECONDS     MINUTES      HOURS       DAYS        YEARS
                    -----------------------------------------------------------
   TIME STEP LENGTH  86400.      1440.0      24.000      1.0000     2.73785E-03
 STRESS PERIOD TIME  86400.      1440.0      24.000      1.0000     2.73785E-03
         TOTAL TIME 2.29824E+07 3.83040E+05  6384.0      266.00     0.72827    
1
1
                            STRESS PERIOD NO.  267, LENGTH =   1.000000    
                            -----------------------------------------------

                              NUMBER OF TIME STEPS =     1

                               MULTIPLIER FOR DELT =     1.000

                            INITIAL TIME STEP SIZE =   1.000000    

 REUSING NON-PARAMETER RIVER REACHES FROM LAST STRESS PERIOD

      2 RIVER REACHES

                 RECHARGE = -3.655172E-04
 
 SOLVING FOR HEAD 

 OUTPUT CONTROL FOR STRESS PERIOD  267   TIME STEP    1
    SAVE HEAD FOR ALL LAYERS

 HEAD WILL BE SAVED ON UNIT   51 AT END OF TIME STEP    1, STRESS PERIOD  267
1
  VOLUMETRIC BUDGET FOR ENTIRE MODEL AT END OF TIME STEP    1, STRESS PERIOD 267
  ------------------------------------------------------------------------------

     CUMULATIVE VOLUMES      L**3       RATES FOR THIS TIME STEP      L**3/T
     ------------------                 ------------------------

           IN:                                      IN:
           ---                                      ---
             STORAGE =        1430.6869               STORAGE =           6.2187
       CONSTANT HEAD =           0.0000         CONSTANT HEAD =           0.0000
       RIVER LEAKAGE =         141.0513         RIVER LEAKAGE =           0.3662
            RECHARGE =        1631.5979              RECHARGE =           0.0000

            TOTAL IN =        3203.3359              TOTAL IN =           6.5849

          OUT:                                     OUT:
          ----                                     ----
             STORAGE =         739.8405               STORAGE =           0.0000
       CONSTANT HEAD =         865.6500         CONSTANT HEAD =           2.9299
       RIVER LEAKAGE =         765.7543         RIVER LEAKAGE =           0.0000
            RECHARGE =         832.0918              RECHARGE =           3.6552

           TOTAL OUT =        3203.3364             TOTAL OUT =           6.5851

            IN - OUT =      -4.8828E-04              IN - OUT =      -1.8597E-04

 PERCENT DISCREPANCY =          -0.00     PERCENT DISCREPANCY =          -0.00






         TIME SUMMARY AT END OF TIME STEP    1 IN STRESS PERIOD  267
                    SECONDS     MINUTES      HOURS       DAYS        YEARS
                    -----------------------------------------------------------
   TIME STEP LENGTH  86400.      1440.0      24.000      1.0000     2.73785E-03
 STRESS PERIOD TIME  86400.      1440.0      24.000      1.0000     2.73785E-03
         TOTAL TIME 2.30688E+07 3.84480E+05  6408.0      267.00     0.73101    
1
1
                            STRESS PERIOD NO.  268, LENGTH =   1.000000    
                            -----------------------------------------------

                              NUMBER OF TIME STEPS =     1

                               MULTIPLIER FOR DELT =     1.000

                            INITIAL TIME STEP SIZE =   1.000000    

 REUSING NON-PARAMETER RIVER REACHES FROM LAST STRESS PERIOD

      2 RIVER REACHES

                 RECHARGE =  3.073276E-04
 
 SOLVING FOR HEAD 

 OUTPUT CONTROL FOR STRESS PERIOD  268   TIME STEP    1
    SAVE HEAD FOR ALL LAYERS

 HEAD WILL BE SAVED ON UNIT   51 AT END OF TIME STEP    1, STRESS PERIOD  268
1
  VOLUMETRIC BUDGET FOR ENTIRE MODEL AT END OF TIME STEP    1, STRESS PERIOD 268
  ------------------------------------------------------------------------------

     CUMULATIVE VOLUMES      L**3       RATES FOR THIS TIME STEP      L**3/T
     ------------------                 ------------------------

           IN:                                      IN:
           ---                                      ---
             STORAGE =        1430.9579               STORAGE =           0.2710
       CONSTANT HEAD =           0.0000         CONSTANT HEAD =           0.0000
       RIVER LEAKAGE =         141.3387         RIVER LEAKAGE =           0.2874
            RECHARGE =        1634.6711              RECHARGE =           3.0733

            TOTAL IN =        3206.9678              TOTAL IN =           3.6316

          OUT:                                     OUT:
          ----                                     ----
             STORAGE =         740.5435               STORAGE =           0.7030
       CONSTANT HEAD =         868.5786         CONSTANT HEAD =           2.9286
       RIVER LEAKAGE =         765.7543         RIVER LEAKAGE =           0.0000
            RECHARGE =         832.0918              RECHARGE =           0.0000

           TOTAL OUT =        3206.9683             TOTAL OUT =           3.6316

            IN - OUT =      -4.8828E-04              IN - OUT =       2.3127E-05

 PERCENT DISCREPANCY =          -0.00     PERCENT DISCREPANCY =           0.00






         TIME SUMMARY AT END OF TIME STEP    1 IN STRESS PERIOD  268
                    SECONDS     MINUTES      HOURS       DAYS        YEARS
                    -----------------------------------------------------------
   TIME STEP LENGTH  86400.      1440.0      24.000      1.0000     2.73785E-03
 STRESS PERIOD TIME  86400.      1440.0      24.000      1.0000     2.73785E-03
         TOTAL TIME 2.31552E+07 3.85920E+05  6432.0      268.00     0.73374    
1
1
                            STRESS PERIOD NO.  269, LENGTH =   1.000000    
                            -----------------------------------------------

                              NUMBER OF TIME STEPS =     1

                               MULTIPLIER FOR DELT =     1.000

                            INITIAL TIME STEP SIZE =   1.000000    

 REUSING NON-PARAMETER RIVER REACHES FROM LAST STRESS PERIOD

      2 RIVER REACHES

                 RECHARGE =  4.413793E-04
 
 SOLVING FOR HEAD 

 OUTPUT CONTROL FOR STRESS PERIOD  269   TIME STEP    1
    SAVE HEAD FOR ALL LAYERS

 HEAD WILL BE SAVED ON UNIT   51 AT END OF TIME STEP    1, STRESS PERIOD  269
1
  VOLUMETRIC BUDGET FOR ENTIRE MODEL AT END OF TIME STEP    1, STRESS PERIOD 269
  ------------------------------------------------------------------------------

     CUMULATIVE VOLUMES      L**3       RATES FOR THIS TIME STEP      L**3/T
     ------------------                 ------------------------

           IN:                                      IN:
           ---                                      ---
             STORAGE =        1431.0575               STORAGE =       9.9659E-02
       CONSTANT HEAD =           0.0000         CONSTANT HEAD =           0.0000
       RIVER LEAKAGE =         141.5614         RIVER LEAKAGE =           0.2227
            RECHARGE =        1639.0850              RECHARGE =           4.4138

            TOTAL IN =        3211.7039              TOTAL IN =           4.7362

          OUT:                                     OUT:
          ----                                     ----
             STORAGE =         742.3521               STORAGE =           1.8087
       CONSTANT HEAD =         871.5059         CONSTANT HEAD =           2.9273
       RIVER LEAKAGE =         765.7543         RIVER LEAKAGE =           0.0000
            RECHARGE =         832.0918              RECHARGE =           0.0000

           TOTAL OUT =        3211.7041             TOTAL OUT =           4.7360

            IN - OUT =      -2.4414E-04              IN - OUT =       1.8597E-04

 PERCENT DISCREPANCY =          -0.00     PERCENT DISCREPANCY =           0.00






         TIME SUMMARY AT END OF TIME STEP    1 IN STRESS PERIOD  269
                    SECONDS     MINUTES      HOURS       DAYS        YEARS
                    -----------------------------------------------------------
   TIME STEP LENGTH  86400.      1440.0      24.000      1.0000     2.73785E-03
 STRESS PERIOD TIME  86400.      1440.0      24.000      1.0000     2.73785E-03
         TOTAL TIME 2.32416E+07 3.87360E+05  6456.0      269.00     0.73648    
1
1
                            STRESS PERIOD NO.  270, LENGTH =   1.000000    
                            -----------------------------------------------

                              NUMBER OF TIME STEPS =     1

                               MULTIPLIER FOR DELT =     1.000

                            INITIAL TIME STEP SIZE =   1.000000    

 REUSING NON-PARAMETER RIVER REACHES FROM LAST STRESS PERIOD

      2 RIVER REACHES

                 RECHARGE =  1.384483E-03
 
 SOLVING FOR HEAD 

 OUTPUT CONTROL FOR STRESS PERIOD  270   TIME STEP    1
    SAVE HEAD FOR ALL LAYERS

 HEAD WILL BE SAVED ON UNIT   51 AT END OF TIME STEP    1, STRESS PERIOD  270
1
  VOLUMETRIC BUDGET FOR ENTIRE MODEL AT END OF TIME STEP    1, STRESS PERIOD 270
  ------------------------------------------------------------------------------

     CUMULATIVE VOLUMES      L**3       RATES FOR THIS TIME STEP      L**3/T
     ------------------                 ------------------------

           IN:                                      IN:
           ---                                      ---
             STORAGE =        1431.1489               STORAGE =       9.1463E-02
       CONSTANT HEAD =           0.0000         CONSTANT HEAD =           0.0000
       RIVER LEAKAGE =         141.5614         RIVER LEAKAGE =           0.0000
            RECHARGE =        1652.9298              RECHARGE =          13.8448

            TOTAL IN =        3225.6401              TOTAL IN =          13.9363

          OUT:                                     OUT:
          ----                                     ----
             STORAGE =         753.2242               STORAGE =          10.8722
       CONSTANT HEAD =         874.4323         CONSTANT HEAD =           2.9264
       RIVER LEAKAGE =         765.8922         RIVER LEAKAGE =           0.1378
            RECHARGE =         832.0918              RECHARGE =           0.0000

           TOTAL OUT =        3225.6404             TOTAL OUT =          13.9364

            IN - OUT =      -2.4414E-04              IN - OUT =      -1.2684E-04

 PERCENT DISCREPANCY =          -0.00     PERCENT DISCREPANCY =          -0.00






         TIME SUMMARY AT END OF TIME STEP    1 IN STRESS PERIOD  270
                    SECONDS     MINUTES      HOURS       DAYS        YEARS
                    -----------------------------------------------------------
   TIME STEP LENGTH  86400.      1440.0      24.000      1.0000     2.73785E-03
 STRESS PERIOD TIME  86400.      1440.0      24.000      1.0000     2.73785E-03
         TOTAL TIME 2.33280E+07 3.88800E+05  6480.0      270.00     0.73922    
1
1
                            STRESS PERIOD NO.  271, LENGTH =   1.000000    
                            -----------------------------------------------

                              NUMBER OF TIME STEPS =     1

                               MULTIPLIER FOR DELT =     1.000

                            INITIAL TIME STEP SIZE =   1.000000    

 REUSING NON-PARAMETER RIVER REACHES FROM LAST STRESS PERIOD

      2 RIVER REACHES

                 RECHARGE =  6.827586E-04
 
 SOLVING FOR HEAD 

 OUTPUT CONTROL FOR STRESS PERIOD  271   TIME STEP    1
    SAVE HEAD FOR ALL LAYERS

 HEAD WILL BE SAVED ON UNIT   51 AT END OF TIME STEP    1, STRESS PERIOD  271
1
  VOLUMETRIC BUDGET FOR ENTIRE MODEL AT END OF TIME STEP    1, STRESS PERIOD 271
  ------------------------------------------------------------------------------

     CUMULATIVE VOLUMES      L**3       RATES FOR THIS TIME STEP      L**3/T
     ------------------                 ------------------------

           IN:                                      IN:
           ---                                      ---
             STORAGE =        1431.2391               STORAGE =       9.0249E-02
       CONSTANT HEAD =           0.0000         CONSTANT HEAD =           0.0000
       RIVER LEAKAGE =         141.5614         RIVER LEAKAGE =           0.0000
            RECHARGE =        1659.7574              RECHARGE =           6.8276

            TOTAL IN =        3232.5581              TOTAL IN =           6.9178

          OUT:                                     OUT:
          ----                                     ----
             STORAGE =         757.0981               STORAGE =           3.8739
       CONSTANT HEAD =         877.3578         CONSTANT HEAD =           2.9255
       RIVER LEAKAGE =         766.0104         RIVER LEAKAGE =           0.1183
            RECHARGE =         832.0918              RECHARGE =           0.0000

           TOTAL OUT =        3232.5581             TOTAL OUT =           6.9176

            IN - OUT =           0.0000              IN - OUT =       1.8978E-04

 PERCENT DISCREPANCY =           0.00     PERCENT DISCREPANCY =           0.00






         TIME SUMMARY AT END OF TIME STEP    1 IN STRESS PERIOD  271
                    SECONDS     MINUTES      HOURS       DAYS        YEARS
                    -----------------------------------------------------------
   TIME STEP LENGTH  86400.      1440.0      24.000      1.0000     2.73785E-03
 STRESS PERIOD TIME  86400.      1440.0      24.000      1.0000     2.73785E-03
         TOTAL TIME 2.34144E+07 3.90240E+05  6504.0      271.00     0.74196    
1
1
                            STRESS PERIOD NO.  272, LENGTH =   1.000000    
                            -----------------------------------------------

                              NUMBER OF TIME STEPS =     1

                               MULTIPLIER FOR DELT =     1.000

                            INITIAL TIME STEP SIZE =   1.000000    

 REUSING NON-PARAMETER RIVER REACHES FROM LAST STRESS PERIOD

      2 RIVER REACHES

                 RECHARGE =  1.098276E-03
 
 SOLVING FOR HEAD 

 OUTPUT CONTROL FOR STRESS PERIOD  272   TIME STEP    1
    SAVE HEAD FOR ALL LAYERS

 HEAD WILL BE SAVED ON UNIT   51 AT END OF TIME STEP    1, STRESS PERIOD  272
1
  VOLUMETRIC BUDGET FOR ENTIRE MODEL AT END OF TIME STEP    1, STRESS PERIOD 272
  ------------------------------------------------------------------------------

     CUMULATIVE VOLUMES      L**3       RATES FOR THIS TIME STEP      L**3/T
     ------------------                 ------------------------

           IN:                                      IN:
           ---                                      ---
             STORAGE =        1431.3209               STORAGE =       8.1797E-02
       CONSTANT HEAD =           0.0000         CONSTANT HEAD =           0.0000
       RIVER LEAKAGE =         141.5614         RIVER LEAKAGE =           0.0000
            RECHARGE =        1670.7402              RECHARGE =          10.9828

            TOTAL IN =        3243.6226              TOTAL IN =          11.0646

          OUT:                                     OUT:
          ----                                     ----
             STORAGE =         764.9539               STORAGE =           7.8558
       CONSTANT HEAD =         880.2825         CONSTANT HEAD =           2.9247
       RIVER LEAKAGE =         766.2948         RIVER LEAKAGE =           0.2843
            RECHARGE =         832.0918              RECHARGE =           0.0000

           TOTAL OUT =        3243.6230             TOTAL OUT =          11.0648

            IN - OUT =      -4.8828E-04              IN - OUT =      -2.1744E-04

 PERCENT DISCREPANCY =          -0.00     PERCENT DISCREPANCY =          -0.00






         TIME SUMMARY AT END OF TIME STEP    1 IN STRESS PERIOD  272
                    SECONDS     MINUTES      HOURS       DAYS        YEARS
                    -----------------------------------------------------------
   TIME STEP LENGTH  86400.      1440.0      24.000      1.0000     2.73785E-03
 STRESS PERIOD TIME  86400.      1440.0      24.000      1.0000     2.73785E-03
         TOTAL TIME 2.35008E+07 3.91680E+05  6528.0      272.00     0.74470    
1

 Run end date and time (yyyy/mm/dd hh:mm:ss): 2018/11/28 12:07:49
 Elapsed run time:  0.822 Seconds

